geometry optimzed in LAMMPS
_audit_creation_date              2020-11-30 
_audit_creation_method            'lammps2cif' 
_symmetry_space_group_name_H-M    'P1' 
_symmetry_Int_Tables_number       1 
_symmetry_cell_setting            triclinic 
loop_ 
_symmetry_equiv_pos_as_xyz 
  x,y,z 
_cell_length_a                    35.8767357 
_cell_length_b                    35.871022072443246 
_cell_length_c                    35.828699045450094 
_cell_angle_alpha                 90.12566198224695 
_cell_angle_beta                  89.7863424855629 
_cell_angle_gamma                 89.97007537907538 
loop_ 
_atom_site_label 
_atom_site_type_symbol 
_atom_site_fract_x 
_atom_site_fract_y 
_atom_site_fract_z 
_atom_site_charge 
O1          O  0.76712629  0.68452857  0.85301709    -0.87400
C2          C  0.78196627  0.69767700  0.63642115     1.12600
O3          O  0.72105172  0.70860242  0.78625059    -1.35300
O4          O  0.84109550  0.71569415  0.70603167    -0.88900
O5          O  0.70818173  0.69466336  0.87123820    -0.89600
O6          O  0.74067801  0.78291604  0.83109065    -0.78400
O7          O  0.80265432  0.69287913  0.77509316    -1.00500
C8          C  0.76662132  0.83291580  0.73529502     1.22600
O9          O  0.69697084  0.77219555  0.74973042    -1.35400
Mn10       Mn  0.70085229  0.71548028  0.72970213     1.82100
O11         O  0.77349576  0.81537897  0.76509164    -0.77500
O12         O  0.82634679  0.77589990  0.69789728    -0.86900
C13         C  0.69779609  0.74830329  0.65273627     1.13700
C14         C  0.85006290  0.74978445  0.70395318     1.08400
O15         O  0.64392160  0.70240628  0.73653718    -0.78400
O16         O  0.75793430  0.73307451  0.72300378    -1.32100
O17         O  0.63993723  0.73019230  0.78887748    -0.97600
C18         C  0.68313506  0.86439858  0.77147875     1.07200
Mn19       Mn  0.76926145  0.77262206  0.68086551     1.48600
O20         O  0.67490567  0.83975539  0.79611118    -0.86800
Mn21       Mn  0.67581378  0.70872747  0.82507901     1.49600
O22         O  0.72001586  0.62585154  0.81354468    -0.90700
C23         C  0.82156514  0.71741523  0.78918892     1.20400
C24         C  0.68488921  0.62220662  0.81514428     1.12400
Mn25       Mn  0.75026647  0.76088816  0.77621776     1.81000
O26         O  0.71556363  0.77286773  0.66813041    -0.95900
Mn27       Mn  0.75975023  0.66534305  0.79668032     1.49300
C28         C  0.74272269  0.69271619  0.87807365     1.08900
Mn29       Mn  0.69676199  0.81036045  0.70418099     1.49900
C30         C  0.61083495  0.80126063  0.71634682     1.11800
O31         O  0.68493719  0.76264200  0.83162741    -1.01700
O32         O  0.78243377  0.73270850  0.64078278    -0.91300
C33         C  0.71064990  0.77698856  0.84862551     1.23100
O34         O  0.75102116  0.81575205  0.71045050    -1.02100
O35         O  0.78146161  0.67466010  0.66379822    -0.89500
O36         O  0.63854745  0.80181572  0.69360630    -0.89100
O37         O  0.66276543  0.65049303  0.81544535    -0.89100
Mn38       Mn  0.79368474  0.68558753  0.72135290     1.47900
O39         O  0.68547223  0.72211594  0.67257310    -0.77600
C40         C  0.62446198  0.71371681  0.76343732     1.16200
O41         O  0.80549295  0.74802742  0.79651281    -0.76300
O42         O  0.70418431  0.65830917  0.71518127    -0.75900
Mn43       Mn  0.65524506  0.78349913  0.79024180     1.51100
O44         O  0.68516790  0.85715509  0.73692133    -0.88300
O45         O  0.75585701  0.65138714  0.74331433    -0.95800
O46         O  0.61479439  0.79962371  0.75148091    -0.90800
C47         C  0.72910792  0.63722949  0.72772603     1.14000
O48         O  0.84521464  0.69111499  0.20820328    -0.87400
C49         C  0.62983498  0.71729833  0.19909235     1.12600
O50         O  0.78066674  0.71590420  0.25768344    -1.35300
O51         O  0.70080931  0.73716447  0.13981286    -0.88900
O52         O  0.86431228  0.69511792  0.26754468    -0.89600
O53         O  0.82908811  0.78850437  0.24316782    -0.78400
O54         O  0.76817711  0.70717475  0.17503185    -1.00500
C55         C  0.73744976  0.84427419  0.22131097     1.22600
O56         O  0.74781121  0.77910025  0.28694962    -1.35400
Mn57       Mn  0.72506286  0.72427000  0.27911235     1.82100
O58         O  0.76589146  0.82531287  0.21350748    -0.77500
O59         O  0.69515453  0.79638615  0.15894486    -0.86900
C60         C  0.64992637  0.75970721  0.28516869     1.13700
C61         C  0.69998256  0.77192340  0.13329734     1.08400
O62         O  0.73085811  0.70696141  0.33508322    -0.78400
O63         O  0.71875409  0.74630831  0.22362968    -1.32100
O64         O  0.78438427  0.73180872  0.34037626    -0.97600
C65         C  0.77456630  0.86777738  0.30578304     1.07200
Mn66       Mn  0.67838385  0.78888724  0.21572356     1.48600
O67         O  0.79811951  0.84173500  0.31207410    -0.86800
Mn68       Mn  0.81904732  0.71073145  0.30225275     1.49600
O69         O  0.80311624  0.63267190  0.25241694    -0.90700
C70         C  0.78351042  0.73301022  0.15889993     1.20400
C71         C  0.79852779  0.62786107  0.28716954     1.12400
Mn72       Mn  0.77346745  0.77010057  0.23305167     1.81000
O73         O  0.66531781  0.78569524  0.26934926    -0.95900
Mn74       Mn  0.78815405  0.67508488  0.21543195     1.49300
C75         C  0.87098765  0.69510339  0.23261354     1.08900
Mn76       Mn  0.70418190  0.81928040  0.29016350     1.49900
C77         C  0.71601720  0.80364917  0.37489251     1.11800
O78         O  0.83022514  0.76445866  0.29743755    -1.01700
O79         O  0.63556755  0.75221536  0.20020688    -0.91300
C80         C  0.84709576  0.77978684  0.27200395     1.23100
O81         O  0.71104910  0.82851865  0.23623351    -1.02100
O82         O  0.65640828  0.69337808  0.19707130    -0.89500
O83         O  0.69322438  0.80688854  0.34760656    -0.89100
O84         O  0.80185440  0.65435982  0.31089974    -0.89100
Mn85       Mn  0.71429405  0.70203906  0.18439523     1.47900
O86         O  0.66937027  0.73256501  0.29545170    -0.77600
C87         C  0.75786298  0.71619827  0.35518477     1.16200
O88         O  0.79322969  0.76086996  0.17790504    -0.76300
O89         O  0.70741242  0.66877046  0.27198579    -0.75900
Mn90       Mn  0.78918427  0.78542301  0.32861700     1.51100
O91         O  0.73968352  0.86260620  0.30488226    -0.88300
O92         O  0.73422672  0.66326153  0.21910062    -0.95800
O93         O  0.75106709  0.80124244  0.37035345    -0.90800
C94         C  0.71830619  0.64850347  0.24557211     1.14000
O95         O  0.68477007  0.19444240  0.86521298    -0.87400
C96         C  0.71078878  0.18000427  0.64814749     1.12600
O97         O  0.70804189  0.24365459  0.80045163    -1.35300
O98         O  0.73282738  0.12477251  0.72157855    -0.88900
O99         O  0.68940712  0.25372143  0.88451047    -0.89600
O100        O  0.78214092  0.23113332  0.84794838    -0.78400
O101        O  0.70147078  0.16114867  0.78818702    -1.00500
C102        C  0.83741107  0.21142732  0.75522064     1.22600
O103        O  0.76991062  0.27403594  0.76659277    -1.35400
Mn104      Mn  0.71487222  0.26490319  0.74470439     1.82100
O105        O  0.81906990  0.20244939  0.78384058    -0.77500
O106        O  0.79126823  0.14546263  0.71398822    -0.86900
C107        C  0.74907110  0.27036633  0.66913289     1.13700
C108        C  0.76774471  0.11910739  0.71969339     1.08400
O109        O  0.69633349  0.32109581  0.75147980    -0.78400
O110        O  0.73854173  0.20953923  0.73790783    -1.32100
O111        O  0.72231438  0.32702718  0.80443207    -0.97600
C112        C  0.85925052  0.29671185  0.78992080     1.07200
Mn113      Mn  0.78117807  0.20210267  0.69727250     1.48600
O114        O  0.83376898  0.30068458  0.81482454    -0.86800
Mn115      Mn  0.70280764  0.28839868  0.83933206     1.49600
O116        O  0.62468248  0.23704226  0.82266088    -0.90700
C117        C  0.72739087  0.14548585  0.80369024     1.20400
C118        C  0.61891635  0.27196922  0.82191053     1.12400
Mn119      Mn  0.76294648  0.22007539  0.79241472     1.81000
O120        O  0.77499722  0.25531420  0.68504835    -0.95900
Mn121      Mn  0.66817034  0.20060284  0.80813268     1.49300
C122        C  0.68961724  0.21892611  0.89089739     1.08900
Mn123      Mn  0.80860723  0.27838503  0.72195069     1.49900
C124        C  0.78958015  0.36177646  0.73445022     1.11800
O125        O  0.75698946  0.28476382  0.84898763    -1.01700
O126        O  0.74536438  0.18439591  0.65429006    -0.91300
C127        C  0.77355180  0.26025256  0.86582747     1.23100
O128        O  0.82049760  0.22506460  0.72899017    -1.02100
O129        O  0.68673574  0.17805291  0.67489452    -0.89500
O130        O  0.79216555  0.33462114  0.71128903    -0.89100
O131        O  0.64521095  0.29598794  0.82511760    -0.89100
Mn132      Mn  0.69587873  0.16854795  0.73398904     1.47900
O133        O  0.72167140  0.28092892  0.68830446    -0.77600
C134        C  0.70557070  0.34157585  0.77852473     1.16200
O135        O  0.75529964  0.16479464  0.81259453    -0.76300
O136        O  0.65919703  0.25585092  0.72820710    -0.75900
Mn137      Mn  0.77648957  0.31601140  0.80773841     1.51100
O138        O  0.85245454  0.29639456  0.75528516    -0.88300
O139        O  0.65584316  0.20250354  0.75408136    -0.95800
O140        O  0.79083099  0.35746086  0.76952553    -0.90800
C141        C  0.64001697  0.22845152  0.73857660     1.14000
O142        O  0.19473819  0.33060703  0.83927798    -0.87400
C143        C  0.17560791  0.28321014  0.63098213     1.12600
O144        O  0.24247565  0.29276105  0.77838233    -1.35300
O145        O  0.12225405  0.26779599  0.70295094    -0.88900
O146        O  0.25391708  0.32432380  0.85779093    -0.89600
O147        O  0.22440760  0.22479739  0.83333347    -0.78400
O148        O  0.16025285  0.30317308  0.76739431    -1.00500
C149        C  0.20459840  0.16195990  0.74348302     1.22600
O150        O  0.26933942  0.22670810  0.75041689    -1.35400
Mn151      Mn  0.26406172  0.27980442  0.72297946     1.82100
O152        O  0.19619243  0.18314562  0.77040600    -0.77500
O153        O  0.14018995  0.20827284  0.69560259    -0.86900
C154        C  0.26911884  0.23861766  0.64767830     1.13700
C155        C  0.11467267  0.23340602  0.69888325     1.08400
O156        O  0.32183852  0.29416005  0.72949436    -0.78400
O157        O  0.20735979  0.25880280  0.71850266    -1.32100
O158        O  0.32346353  0.27277303  0.78500996    -0.97600
C159        C  0.28422079  0.13941459  0.78386344     1.07200
Mn160      Mn  0.19844091  0.21377635  0.68040109     1.48600
O161        O  0.28820779  0.16661196  0.80671365    -0.86800
Mn162      Mn  0.28707952  0.29962093  0.81673702     1.49600
O163        O  0.24185214  0.37760764  0.79058650    -0.90700
C164        C  0.14381356  0.27942159  0.78549937     1.20400
C165        C  0.27701283  0.38089975  0.78937078     1.12400
Mn166      Mn  0.21604829  0.23873102  0.77512249     1.81000
O167        O  0.25266807  0.21464779  0.66614097    -0.95900
Mn168      Mn  0.20215812  0.33620497  0.78176520     1.49300
C169        C  0.22005357  0.33242313  0.86391366     1.08900
Mn170      Mn  0.27291871  0.18411705  0.70916859     1.49900
C171        C  0.35666107  0.19827967  0.72487423     1.11800
O172        O  0.27896854  0.24754450  0.83479029    -1.01700
O173        O  0.18171861  0.24895422  0.63729593    -0.91300
C174        C  0.25226676  0.23491042  0.85243938     1.23100
O175        O  0.21891093  0.17562713  0.71555011    -1.02100
O176        O  0.17640773  0.30851035  0.65583323    -0.89500
O177        O  0.33071904  0.19655529  0.70028613    -0.89100
O178        O  0.29941916  0.35358633  0.79462434    -0.89100
Mn179      Mn  0.16790625  0.30313198  0.71318227     1.47900
O180        O  0.28004054  0.26703159  0.66568705    -0.77600
C181        C  0.34041184  0.28517371  0.75807510     1.16200
O182        O  0.16150477  0.25069042  0.79479378    -0.76300
O183        O  0.25821762  0.33502753  0.70182286    -0.75900
Mn184      Mn  0.30856888  0.22092404  0.79459784     1.51100
O185        O  0.28677551  0.14307825  0.74863752    -0.88300
O186        O  0.20506684  0.34149243  0.72778252    -0.95800
O187        O  0.35005829  0.19866740  0.75968326    -0.90800
C188        C  0.23126204  0.35567405  0.71104332     1.14000
O189        O  0.28290355  0.81350546  0.84877572    -0.87400
C190        C  0.26256714  0.81027780  0.63318002     1.12600
O191        O  0.26018648  0.76113683  0.78620875    -1.35300
O192        O  0.23911002  0.87452656  0.69989215    -0.88900
O193        O  0.27848905  0.75482420  0.86962508    -0.89600
O194        O  0.18524442  0.77743890  0.83055799    -0.78400
O195        O  0.26798586  0.84296697  0.77036348    -1.00500
C196        C  0.13242822  0.78993625  0.73660209     1.22600
O197        O  0.19923892  0.72850377  0.75283817    -1.35400
Mn198      Mn  0.25541913  0.73613188  0.73187211     1.82100
O199        O  0.15014239  0.80129364  0.76464393    -0.77500
O200        O  0.18067438  0.85319628  0.69518398    -0.86900
C201        C  0.22377862  0.72679437  0.65565213     1.13700
C202        C  0.20417182  0.87984966  0.69956270     1.08400
O203        O  0.27350966  0.68005282  0.74256746    -0.78400
O204        O  0.23189393  0.79086466  0.72162159    -1.32100
O205        O  0.24470212  0.67898702  0.79430134    -0.97600
C206        C  0.10827237  0.70736900  0.77684981     1.07200
Mn207      Mn  0.19038492  0.79595013  0.68006734     1.48600
O208        O  0.13336286  0.70448668  0.80206002    -0.86800
Mn209      Mn  0.26406689  0.71864729  0.82684744     1.49600
O210        O  0.34228966  0.76885019  0.81034274    -0.90700
C211        C  0.24213270  0.85916156  0.78558400     1.20400
C212        C  0.34719370  0.73403009  0.80787980     1.12400
Mn213      Mn  0.20577128  0.78419317  0.77546220     1.81000
O214        O  0.19656572  0.74197434  0.66978946    -0.95900
Mn215      Mn  0.30016110  0.80429412  0.79256044     1.49300
C216        C  0.27902681  0.78966771  0.87503009     1.08900
Mn217      Mn  0.16151907  0.72121563  0.70790684     1.49900
C218        C  0.17983767  0.63797380  0.72534711     1.11800
O219        O  0.20980750  0.72363753  0.83621010    -1.01700
O220        O  0.22752714  0.81134332  0.63768705    -0.91300
C221        C  0.19422524  0.75036886  0.85082465     1.23100
O222        O  0.14995795  0.77474591  0.71155935    -1.02100
O223        O  0.28548327  0.81485589  0.66017578    -0.89500
O224        O  0.17748930  0.66392163  0.70084697    -0.89100
O225        O  0.32085341  0.71025402  0.81169412    -0.89100
Mn226      Mn  0.27466017  0.83147724  0.71670976     1.47900
O227        O  0.25014631  0.71704169  0.67644093    -0.77600
C228        C  0.26226365  0.66197183  0.77061110     1.16200
O229        O  0.21331838  0.84058291  0.79327570    -0.76300
O230        O  0.31213616  0.74490539  0.71523400    -0.75900
Mn231      Mn  0.19092759  0.68939412  0.79634504     1.51100
O232        O  0.11597107  0.70648307  0.74217206    -0.88300
O233        O  0.31333354  0.79920291  0.73893431    -0.95800
O234        O  0.17821559  0.64457084  0.76022686    -0.90800
C235        C  0.33012547  0.77404325  0.72313481     1.14000
O236        O  0.65443855  0.18566286  0.32038026    -0.87400
C237        C  0.86302172  0.22138878  0.33651412     1.12600
O238        O  0.71606488  0.21455558  0.26961925    -1.35300
O239        O  0.79102067  0.24355953  0.38739136    -0.88900
O240        O  0.63402709  0.19247944  0.26173778    -0.89600
O241        O  0.66381978  0.28633479  0.28272532    -0.78400
O242        O  0.72687557  0.20861547  0.35155743    -1.00500
C243        C  0.75723351  0.34539854  0.30191968     1.22600
O244        O  0.74703294  0.27799914  0.23872599    -1.35400
Mn245      Mn  0.77208237  0.22401496  0.24813999     1.82100
O246        O  0.72871695  0.32658641  0.31063108    -0.77500
O247        O  0.80006242  0.30145594  0.36552695    -0.86900
C248        C  0.84874816  0.26109064  0.24108975     1.13700
C249        C  0.79466380  0.27835879  0.39219297     1.08400
O250        O  0.76620781  0.20575254  0.19234948    -0.78400
O251        O  0.77690683  0.24801457  0.30311349    -1.32100
O252        O  0.71132519  0.22845733  0.18708286    -0.97600
C253        C  0.71811167  0.36640519  0.21310763     1.07200
Mn254      Mn  0.81688302  0.29153511  0.30929984     1.48600
O255        O  0.69454679  0.33976758  0.20926536    -0.86800
Mn256      Mn  0.67679008  0.20760558  0.22557763     1.49600
O257        O  0.69820047  0.12964506  0.27610793    -0.90700
C258        C  0.70946177  0.23286722  0.36788001     1.20400
C259        C  0.69386423  0.12344795  0.24148009     1.12400
Mn260      Mn  0.72124789  0.27008761  0.29315968     1.81000
O261        O  0.83152919  0.28711240  0.25554642    -0.95900
Mn262      Mn  0.71070796  0.17380269  0.31252239     1.49300
C263        C  0.62866514  0.18936073  0.29656821     1.08900
Mn264      Mn  0.79017889  0.31871984  0.23337836     1.49900
C265        C  0.77685306  0.30102966  0.14878323     1.11800
O266        O  0.66330848  0.26131954  0.22893605    -1.01700
O267        O  0.85846017  0.25563495  0.32878163    -0.91300
C268        C  0.64536325  0.27630639  0.25428475     1.23100
O269        O  0.78346418  0.32925499  0.28702741    -1.02100
O270        O  0.83706578  0.19743894  0.33690824    -0.89500
O271        O  0.80033805  0.30519732  0.17553045    -0.89100
O272        O  0.69080626  0.14979698  0.21745040    -0.89100
Mn273      Mn  0.78039675  0.20571173  0.34470479     1.47900
O274        O  0.82962360  0.23293767  0.23194822    -0.77600
C275        C  0.73887638  0.21449399  0.17224378     1.16200
O276        O  0.70080946  0.26149091  0.34933933    -0.76300
O277        O  0.79167453  0.16908664  0.25759985    -0.75900
Mn278      Mn  0.70466795  0.28221287  0.19697487     1.51100
O279        O  0.75280349  0.36092279  0.21763388    -0.88300
O280        O  0.76461267  0.16529888  0.31042783    -0.95800
O281        O  0.74210527  0.29716425  0.15441021    -0.90800
C282        C  0.78215754  0.15004195  0.28545593     1.14000
O283        O  0.19640991  0.69877229  0.15549127    -0.87400
C284        C  0.19734346  0.72747956  0.37187369     1.12600
O285        O  0.24929997  0.72273993  0.22037811    -1.35300
O286        O  0.13621107  0.74925827  0.30591048    -0.88900
O287        O  0.25510797  0.70623581  0.13517734    -0.89600
O288        O  0.23749737  0.79807011  0.17542182    -0.78400
O289        O  0.16640437  0.71825224  0.23562970    -1.00500
C290        C  0.22253690  0.85612900  0.26513063     1.22600
O291        O  0.28351159  0.78371915  0.25325303    -1.35400
Mn292      Mn  0.27303944  0.72835934  0.27585436     1.82100
O293        O  0.21245793  0.83619809  0.23792187    -0.77500
O294        O  0.15681569  0.80823291  0.30922295    -0.86900
C295        C  0.28202492  0.76564397  0.35095659     1.13700
C296        C  0.13037276  0.78414975  0.30719134     1.08400
O297        O  0.32850307  0.70715331  0.26703626    -0.78400
O298        O  0.21921829  0.75450429  0.28373372    -1.32100
O299        O  0.33130721  0.73252395  0.21376129    -0.97600
C300        C  0.31910251  0.86919790  0.22633204     1.07200
Mn301      Mn  0.21410802  0.79858419  0.32347830     1.48600
O302        O  0.31944724  0.84311631  0.20245258    -0.86800
Mn303      Mn  0.29184422  0.71739591  0.17905642     1.49600
O304        O  0.23992414  0.64109343  0.19698951    -0.90700
C305        C  0.15168265  0.74593486  0.22211131     1.20400
C306        C  0.27450214  0.63529448  0.19285280     1.12400
Mn307      Mn  0.22825033  0.77872507  0.22982661     1.81000
O308        O  0.26737613  0.79159170  0.33438104    -0.95900
Mn309      Mn  0.20468683  0.68404092  0.21339195     1.49300
C310        C  0.22051388  0.70240279  0.12902273     1.08900
Mn311      Mn  0.29026290  0.82404164  0.29634699     1.49900
C312        C  0.37272580  0.79841669  0.28381197     1.11800
O313        O  0.29050742  0.77140657  0.17122130    -1.01700
O314        O  0.19773883  0.76233739  0.36602079    -0.91300
C315        C  0.26557217  0.78923249  0.15648419     1.23100
O316        O  0.23685117  0.83957099  0.29155805    -1.02100
O317        O  0.19381857  0.70313987  0.34581162    -0.89500
O318        O  0.34578166  0.80555703  0.30627674    -0.89100
O319        O  0.29873899  0.66080136  0.18958554    -0.89100
Mn320      Mn  0.17809551  0.71201416  0.28912640     1.47900
O321        O  0.29045869  0.73664404  0.33251326    -0.77600
C322        C  0.34707253  0.71486059  0.23809869     1.16200
O323        O  0.17209019  0.77288426  0.21255211    -0.76300
O324        O  0.26239819  0.67094248  0.29218611    -0.75900
Mn325      Mn  0.32558951  0.78629518  0.21102007     1.51100
O326        O  0.31073939  0.86491302  0.26047153    -0.88300
O327        O  0.20897516  0.67050935  0.26695781    -0.95800
O328        O  0.36884042  0.79575055  0.24874225    -0.90800
C329        C  0.23430269  0.65241942  0.28140203     1.14000
C330        C  0.52611262  0.15773555  0.30291587     0.81000
N331        N  0.53034455  0.12092401  0.29670430    -0.77300
C332        C  0.50058487  0.09844414  0.29122345     0.83400
N333        N  0.46591396  0.11370383  0.29182295    -0.77300
C334        C  0.46166416  0.15101079  0.29737938     0.83500
N335        N  0.49174111  0.17312955  0.30316836    -0.79000
C336        C  0.53101000  0.29439797  0.23273390     0.81000
N337        N  0.53083676  0.32086778  0.20574971    -0.77300
C338        C  0.49867005  0.33256125  0.18981335     0.83400
N339        N  0.46571516  0.31819139  0.20110802    -0.77300
C340        C  0.46360115  0.29232389  0.22838032     0.83500
N341        N  0.49675877  0.27986251  0.24462908    -0.79000
C342        C  0.21827057  0.46919166  0.27853182     0.81000
N343        N  0.23489325  0.50433706  0.27869812    -0.77300
C344        C  0.21281151  0.53631836  0.28223473     0.83400
N345        N  0.17521685  0.53196482  0.28648585    -0.77300
C346        C  0.15921172  0.49751568  0.28623392     0.83500
N347        N  0.18104537  0.46713296  0.28208668    -0.79000
C348        C  0.28673365  0.53403893  0.15545487     0.81000
N349        N  0.28952457  0.49910286  0.16928731    -0.77300
C350        C  0.29057204  0.46973049  0.14543233     0.83400
N351        N  0.28951400  0.47553023  0.10791999    -0.77300
C352        C  0.28666510  0.51081652  0.09409102     0.83500
N353        N  0.28518692  0.53968976  0.11831709    -0.79000
C354        C  0.78776654  0.47405719  0.72147327     0.81000
N355        N  0.75828177  0.49827220  0.72519612    -0.77300
C356        C  0.76502886  0.53586619  0.72549402     0.83400
N357        N  0.80014002  0.54846562  0.72150580    -0.77300
C358        C  0.82912083  0.52495080  0.71740881     0.83500
N359        N  0.82286609  0.48768521  0.71716131    -0.79000
C360        C  0.66497727  0.50890971  0.82651079     0.81000
N361        N  0.67805321  0.48191139  0.80221002    -0.77300
C362        C  0.67509683  0.44478024  0.81163166     0.83400
N363        N  0.65946484  0.43534907  0.84456346    -0.77300
C364        C  0.64703905  0.46141309  0.86878780     0.83500
N365        N  0.64976651  0.49817357  0.85971871    -0.79000
C366        C  0.46861511  0.20407722  0.69843373     0.81000
N367        N  0.49717015  0.21697596  0.72069030    -0.77300
C368        C  0.53311799  0.21638557  0.70705510     0.83400
N369        N  0.53977917  0.20302907  0.67261613    -0.77300
C370        C  0.51205782  0.18979063  0.65130354     0.83500
N371        N  0.47660815  0.18997670  0.66425903    -0.79000
C372        C  0.44266279  0.28405382  0.80022778     0.81000
N373        N  0.43183822  0.28115541  0.83635159    -0.77300
C374        C  0.45706880  0.27898955  0.86425436     0.83400
N375        N  0.49390081  0.28020691  0.85581348    -0.77300
C376        C  0.50584352  0.28333634  0.82003181     0.83500
N377        N  0.48007964  0.28539580  0.79170298    -0.79000
N378        N  0.41853060  0.46438915  0.91631639    -0.35900
N379        N  0.40362867  0.40233757  0.96144099    -0.56400
N380        N  0.48205572  0.40673046  0.99091588    -0.35900
N381        N  0.49535872  0.46566242  0.93666046    -0.56400
C382        C  0.38449772  0.45288125  0.90606670     0.27700
C383        C  0.43399645  0.48125826  0.88661874     0.27700
C384        C  0.47260820  0.37168911  0.00141120     0.27700
C385        C  0.51971805  0.40973973  0.99232193     0.27700
C386        C  0.36856273  0.41578300  0.95987632     0.36300
C387        C  0.40622379  0.38044703  0.99169344     0.36300
C388        C  0.49174314  0.49798947  0.91811267     0.36300
C389        C  0.52271977  0.47067885  0.96164407     0.36300
C390        C  0.37776664  0.46246513  0.86929352    -0.21200
C391        C  0.40956808  0.48004003  0.85666709    -0.21200
C392        C  0.50465859  0.35386925  0.01391833    -0.21200
C393        C  0.53440038  0.37745769  0.00721408    -0.21200
C394        C  0.34747450  0.40059901  0.98855936    -0.22200
C395        C  0.37143248  0.37757487  0.00850196    -0.22200
C396        C  0.51729829  0.52388409  0.93064128    -0.22200
C397        C  0.53712882  0.50641672  0.95817600    -0.22200
C398        C  0.35767616  0.44159548  0.93215376    -0.17600
C399        C  0.46652309  0.50286462  0.88884196    -0.17600
C400        C  0.54079680  0.44027334  0.97832353    -0.17600
C401        C  0.43639824  0.35555109  0.99591433    -0.17600
H402        H  0.35200084  0.45893840  0.85406875     0.15300
H403        H  0.41330157  0.49272937  0.82953097     0.15300
H404        H  0.50672168  0.32741618  0.02804976     0.15300
H405        H  0.56343367  0.37169973  0.01294218     0.15300
H406        H  0.31815778  0.40514521  0.99410656     0.13600
H407        H  0.36392194  0.35970384  0.03162245     0.13600
H408        H  0.52151467  0.55206139  0.92075931     0.13600
H409        H  0.56043585  0.51840585  0.97270726     0.13600
H410        H  0.42836619  0.46485172  0.94363971     0.26900
H411        H  0.46385576  0.42677203  0.98087905     0.26900
N412        N  0.53564720  0.50278594  0.05855729    -0.35900
N413        N  0.45715734  0.49149301  0.04241075    -0.56400
N414        N  0.45796353  0.56519499  0.00831326    -0.35900
N415        N  0.53678065  0.57339694  0.01807028    -0.56400
C416        C  0.52988718  0.46746472  0.07040634     0.27700
C417        C  0.57268064  0.50691763  0.05294409     0.27700
C418        C  0.42492414  0.55244051  0.99620582     0.27700
C419        C  0.46599390  0.59643253  0.98922361     0.27700
C420        C  0.46147873  0.46852249  0.07200127     0.36300
C421        C  0.42069913  0.50083380  0.04179196     0.36300
C422        C  0.57281492  0.57242756  0.02856164     0.36300
C423        C  0.52903978  0.60912947  0.00886598     0.36300
C424        C  0.56331889  0.44858736  0.07207703    -0.21200
C425        C  0.59029662  0.47336109  0.06164806    -0.21200
C426        C  0.41189908  0.57560723  0.96808794    -0.21200
C427        C  0.43777313  0.60393634  0.96416148    -0.21200
C428        C  0.42783760  0.46271066  0.08990183    -0.22200
C429        C  0.40208268  0.48343918  0.07110807    -0.22200
C430        C  0.58872483  0.60733960  0.02391197    -0.22200
C431        C  0.56093764  0.63066684  0.01191372    -0.22200
C432        C  0.49566690  0.45295909  0.08305172    -0.17600
C433        C  0.59101616  0.54107706  0.04425015    -0.17600
C434        C  0.49252295  0.62227849  0.00174285    -0.17600
C435        C  0.40408564  0.52515926  0.01532564    -0.17600
H436        H  0.56791758  0.41999418  0.08049310     0.15300
H437        H  0.61940600  0.46621877  0.06058884     0.15300
H438        H  0.38518673  0.57417096  0.95427156     0.15300
H439        H  0.43493353  0.62852602  0.94695326     0.15300
H440        H  0.42261151  0.44656455  0.11485119     0.13600
H441        H  0.37329181  0.48649246  0.07949587     0.13600
H442        H  0.61725470  0.61544299  0.02931626     0.13600
H443        H  0.56471345  0.65973627  0.00539239     0.13600
H444        H  0.51566657  0.52373049  0.05767082     0.26900
H445        H  0.47178039  0.55643168  0.03220986     0.26900
C446        C  0.18098803  0.52473984  0.70432600     0.81000
N447        N  0.20755981  0.49792867  0.71203894    -0.77300
C448        C  0.19916244  0.46089597  0.70592821     0.83400
N449        N  0.16554460  0.45163521  0.69255385    -0.77300
C450        C  0.13994991  0.47754415  0.68433143     0.83500
N451        N  0.14788390  0.51411527  0.68944344    -0.79000
C452        C  0.27920628  0.48745026  0.80088280     0.81000
N453        N  0.27908384  0.52142011  0.78361337    -0.77300
C454        C  0.27195088  0.55297260  0.80427612     0.83400
N455        N  0.26641221  0.55004564  0.84204357    -0.77300
C456        C  0.26549743  0.51578913  0.85858527     0.83500
N457        N  0.27184240  0.48533610  0.83750852    -0.79000
C458        C  0.50045389  0.81910127  0.69379842     0.81000
N459        N  0.46979317  0.79724558  0.70085729    -0.77300
C460        C  0.43458527  0.81180540  0.69656443     0.83400
N461        N  0.43060215  0.84788771  0.68547759    -0.77300
C462        C  0.46100136  0.86967662  0.67940213     0.83500
N463        N  0.49553110  0.85501821  0.68357168    -0.79000
C464        C  0.51519938  0.68555444  0.77827183     0.81000
N465        N  0.48390650  0.70754345  0.77738933    -0.77300
C466        C  0.45037710  0.69255065  0.78770926     0.83400
N467        N  0.44872615  0.65710964  0.79933584    -0.77300
C468        C  0.47941461  0.63564559  0.80142685     0.83500
N469        N  0.51279809  0.64988635  0.79082105    -0.79000
C470        C  0.78846918  0.70386331  0.46130426     0.81000
N471        N  0.82568552  0.70543957  0.45585441    -0.77300
C472        C  0.84969462  0.70163640  0.48451140     0.83400
N473        N  0.83615238  0.69532201  0.51933097    -0.77300
C474        C  0.79886126  0.69338863  0.52570308     0.83500
N475        N  0.77459251  0.69749641  0.49644179    -0.79000
C476        C  0.69708060  0.78911763  0.55075064     0.81000
N477        N  0.69683834  0.78070963  0.51337086    -0.77300
C478        C  0.69939005  0.80905575  0.48771321     0.83400
N479        N  0.70138192  0.84494944  0.49977424    -0.77300
C480        C  0.70162760  0.85320074  0.53682020     0.83500
N481        N  0.69950921  0.82503252  0.56172251    -0.79000
C482        C  0.47698401  0.77332469  0.32310582     0.81000
N483        N  0.50868882  0.76927567  0.30203514    -0.77300
C484        C  0.54181277  0.76185970  0.31937980     0.83400
N485        N  0.54301170  0.75976333  0.35701280    -0.77300
C486        C  0.51186651  0.76422913  0.37796578     0.83500
N487        N  0.47899649  0.77106127  0.36074857    -0.79000
C488        C  0.45214920  0.70181303  0.19774768     0.81000
N489        N  0.48801876  0.70353458  0.21121461    -0.77300
C490        C  0.51763605  0.70270277  0.18666665     0.83400
N491        N  0.51099663  0.70058908  0.14955311    -0.77300
C492        C  0.47579723  0.69873474  0.13616664     0.83500
N493        N  0.44661998  0.69889307  0.16037379    -0.79000
N494        N  0.54663532  0.90231961  0.53644067    -0.35900
N495        N  0.47506493  0.91437627  0.50023384    -0.56400
N496        N  0.46713456  0.98738964  0.53480744    -0.35900
N497        N  0.53311594  0.96271327  0.58347143    -0.56400
C498        C  0.53886658  0.86712767  0.52599653     0.27700
C499        C  0.57491608  0.90089040  0.56096819     0.27700
C500        C  0.43476095  0.98658446  0.51580926     0.27700
C501        C  0.46127240  0.00773352  0.56614036     0.27700
C502        C  0.48851719  0.88406476  0.48216031     0.36300
C503        C  0.45068121  0.93110757  0.47688158     0.36300
C504        C  0.57036966  0.96385522  0.58527490     0.36300
C505        C  0.52059866  0.99653354  0.59304609     0.36300
C506        C  0.56279488  0.84273880  0.54414742    -0.21200
C507        C  0.58624211  0.86431596  0.56576880    -0.21200
C508        C  0.40962123  0.01087498  0.53280649    -0.21200
C509        C  0.42610477  0.02338508  0.56526263    -0.21200
C510        C  0.47253018  0.88132418  0.44717673    -0.22200
C511        C  0.44833342  0.91058976  0.44405781    -0.22200
C512        C  0.58194226  0.99814285  0.59866662    -0.22200
C513        C  0.54983502  0.01922526  0.60367112    -0.22200
C514        C  0.51338822  0.85761556  0.49769855    -0.17600
C515        C  0.59213287  0.93285095  0.57592570    -0.17600
C516        C  0.48258643  0.00273047  0.59874010    -0.17600
C517        C  0.42541153  0.95953456  0.48817600    -0.17600
H518        H  0.56405958  0.81273368  0.54116288     0.15300
H519        H  0.60882458  0.85430674  0.58299492     0.15300
H520        H  0.38096670  0.01580693  0.52486513     0.15300
H521        H  0.41263728  0.03914079  0.58729212     0.15300
H522        H  0.47757285  0.86039355  0.42595955     0.13600
H523        H  0.43101999  0.91534349  0.42008348     0.13600
H524        H  0.61016985  0.00662716  0.60493821     0.13600
H525        H  0.54807293  0.04709284  0.61512603     0.13600
H526        H  0.53547721  0.92661962  0.52534150     0.26900
H527        H  0.49044642  0.97109297  0.52954971     0.26900
N528        N  0.50294526  0.08787313  0.48058116    -0.35900
N529        N  0.57701880  0.05774841  0.48746332    -0.56400
N530        N  0.55680622  0.99495865  0.43859954    -0.35900
N531        N  0.48392341  0.03570392  0.42653815    -0.56400
C532        C  0.52223157  0.11654934  0.49473003     0.27700
C533        C  0.47083125  0.10181779  0.46757101     0.27700
C534        C  0.59428847  0.99026733  0.44134481     0.27700
C535        C  0.54614837  0.98051405  0.40533200     0.27700
C536        C  0.57530583  0.08061972  0.51729040     0.36300
C537        C  0.60210324  0.03118756  0.49580882     0.36300
C538        C  0.44895158  0.04605421  0.43643539     0.36300
C539        C  0.48133634  0.00339984  0.40767897     0.36300
C540        C  0.50239851  0.14946666  0.49031912    -0.21200
C541        C  0.46957518  0.14005217  0.47301123    -0.21200
C542        C  0.60693693  0.96934308  0.41136995    -0.21200
C543        C  0.57642362  0.96257051  0.38896925    -0.21200
C544        C  0.60034283  0.06972191  0.54429713    -0.22200
C545        C  0.61748341  0.03835026  0.53057366    -0.22200
C546        C  0.42343907  0.02086627  0.42261673    -0.22200
C547        C  0.44402887  0.99408380  0.40381806    -0.22200
C548        C  0.55152104  0.11145152  0.51962594    -0.17600
C549        C  0.44121110  0.07941161  0.45593084    -0.17600
C550        C  0.51156123  0.98815981  0.38718015    -0.17600
C551        C  0.61753406  0.00762715  0.46835043    -0.17600
H552        H  0.50964143  0.17674460  0.50102928     0.15300
H553        H  0.44666339  0.15868959  0.46690863     0.15300
H554        H  0.63544465  0.96136399  0.40541077     0.15300
H555        H  0.57698819  0.94866359  0.36212317     0.15300
H556        H  0.60575256  0.08300596  0.57088588     0.13600
H557        H  0.63909932  0.02288408  0.54463033     0.13600
H558        H  0.39339707  0.02211780  0.42502619     0.13600
H559        H  0.43276129  0.97089148  0.38829333     0.13600
H560        H  0.50890605  0.05970874  0.48434785     0.26900
H561        H  0.54000121  0.01014547  0.45676004     0.26900
C562        C  0.20051391  0.70802228  0.54837404     0.81000
N563        N  0.16941951  0.68728925  0.55287296    -0.77300
C564        C  0.14889721  0.67707424  0.52316792     0.83400
N565        N  0.15992510  0.68668167  0.48851442    -0.77300
C566        C  0.19124042  0.70663443  0.48298257     0.83500
N567        N  0.21211467  0.71776222  0.51309975    -0.79000
C568        C  0.29285916  0.80280056  0.45742944     0.81000
N569        N  0.28417709  0.78911597  0.49231982    -0.77300
C570        C  0.28695467  0.81224079  0.52281158     0.83400
N571        N  0.29793801  0.84766667  0.51801026    -0.77300
C572        C  0.30701695  0.86135658  0.48416631     0.83500
N573        N  0.30467277  0.83872166  0.45383746    -0.79000
C574        C  0.28855830  0.21719801  0.53173739     0.81000
N575        N  0.27696304  0.23661653  0.50003236    -0.77300
C576        C  0.28627171  0.22347803  0.46454933     0.83400
N577        N  0.30632121  0.19196996  0.46171645    -0.77300
C578        C  0.31809429  0.17275490  0.49172826     0.83500
N579        N  0.30945600  0.18557078  0.52670465    -0.79000
C580        C  0.16468682  0.29532421  0.46138226     0.81000
N581        N  0.17200667  0.29956129  0.49799667    -0.77300
C582        C  0.14549918  0.29031595  0.52338103     0.83400
N583        N  0.11132361  0.27783326  0.51201443    -0.77300
C584        C  0.10415681  0.27358476  0.47482435     0.83500
N585        N  0.13145743  0.28206007  0.45021011    -0.79000
C586        C  0.79848436  0.51794358  0.30457130     0.81000
N587        N  0.83513130  0.51364302  0.31014050    -0.77300
C588        C  0.85067534  0.48005094  0.31626057     0.83400
N589        N  0.82853364  0.44937852  0.31625282    -0.77300
C590        C  0.79131979  0.45246802  0.30942171     0.83500
N591        N  0.77577828  0.48716769  0.30407356    -0.79000
C592        C  0.70363400  0.47895080  0.20041421     0.81000
N593        N  0.69658292  0.48873741  0.16440949    -0.77300
C594        C  0.69668016  0.52516446  0.15412355     0.83400
N595        N  0.70346975  0.55156109  0.17987537    -0.77300
C596        C  0.70981570  0.54299500  0.21571923     0.83500
N597        N  0.70980808  0.50634746  0.22666524    -0.79000
N598        N  0.93873666  0.47482109  0.49921135    -0.35900
N599        N  0.94012829  0.49548796  0.57771298    -0.56400
N600        N  0.96380980  0.57104240  0.55828490    -0.35900
N601        N  0.95711824  0.54897741  0.47971904    -0.56400
C602        C  0.91830666  0.44896069  0.51706627     0.27700
C603        C  0.92432157  0.47838015  0.46471243     0.27700
C604        C  0.95424221  0.57531958  0.59468658     0.27700
C605        C  0.96148562  0.60485754  0.54153510     0.27700
C606        C  0.94141510  0.45801709  0.58000170     0.36300
C607        C  0.95198161  0.50851540  0.61083011     0.36300
C608        C  0.96144726  0.53201340  0.44635230     0.36300
C609        C  0.97538293  0.58165689  0.47791735     0.36300
C610        C  0.88971099  0.43653286  0.49441648    -0.21200
C611        C  0.89300209  0.45578541  0.46143212    -0.21200
C612        C  0.94764202  0.61255252  0.60187591    -0.21200
C613        C  0.95115472  0.63098923  0.56858855    -0.21200
C614        C  0.95418823  0.44692284  0.61451674    -0.22200
C615        C  0.96053980  0.47899616  0.63433044    -0.22200
C616        C  0.98324434  0.55382089  0.42308474    -0.22200
C617        C  0.99117280  0.58574036  0.44271109    -0.22200
C618        C  0.92747881  0.43453752  0.55216817    -0.17600
C619        C  0.94090673  0.50001456  0.43622621    -0.17600
C620        C  0.96701464  0.61136545  0.50238843    -0.17600
C621        C  0.94906670  0.54626107  0.62114281    -0.17600
H622        H  0.86872511  0.41589100  0.50108023     0.15300
H623        H  0.87440179  0.45319618  0.43788472     0.15300
H624        H  0.93959920  0.62509196  0.62821359     0.15300
H625        H  0.94565188  0.66029748  0.56624589     0.15300
H626        H  0.95823200  0.41876475  0.62447810     0.13600
H627        H  0.97133363  0.47991370  0.66234586     0.13600
H628        H  0.99127328  0.54819788  0.39448590     0.13600
H629        H  0.00439435  0.61032976  0.43133341     0.13600
H630        H  0.96309435  0.48705709  0.50922686     0.26900
H631        H  0.97022168  0.54600168  0.54522606     0.26900
N632        N  0.04707236  0.50784780  0.44970668    -0.35900
N633        N  0.02719462  0.43131422  0.43292737    -0.56400
N634        N  0.01949280  0.41357596  0.51218732    -0.35900
N635        N  0.03825449  0.49142593  0.52691257    -0.56400
C636        C  0.06049637  0.50368398  0.41468642     0.27700
C637        C  0.06624554  0.53606407  0.46577318     0.27700
C638        C  0.02752410  0.38112186  0.49474787     0.27700
C639        C  0.03757373  0.41287509  0.54530134     0.27700
C640        C  0.02539462  0.44658842  0.39855245     0.36300
C641        C  0.01044771  0.39760121  0.43090249     0.36300
C642        C  0.04404049  0.52832902  0.53016664     0.36300
C643        C  0.03125347  0.47896786  0.56154707     0.36300
C644        C  0.08936717  0.52903580  0.40908798    -0.21200
C645        C  0.09240743  0.54987690  0.44102238    -0.21200
C646        C  0.05138775  0.36033321  0.51692355    -0.21200
C647        C  0.05695490  0.37984206  0.54910861    -0.21200
C648        C  0.00678444  0.42269015  0.37456135    -0.22200
C649        C  0.99697366  0.39175912  0.39518295    -0.22200
C650        C  0.04013820  0.53971271  0.56686242    -0.22200
C651        C  0.03238757  0.50843570  0.58677099    -0.22200
C652        C  0.04626721  0.47833393  0.38773838    -0.17600
C653        C  0.06042131  0.54984844  0.50214052    -0.17600
C654        C  0.03865396  0.44199344  0.57150691    -0.17600
C655        C  0.01419180  0.37028005  0.45909614    -0.17600
H656        H  0.10738152  0.53207961  0.38509792     0.15300
H657        H  0.11235688  0.57199300  0.44579015     0.15300
H658        H  0.06560674  0.33492275  0.51002134     0.15300
H659        H  0.07488944  0.37146127  0.57183102     0.15300
H660        H  0.00207346  0.42656300  0.34500203     0.13600
H661        H  0.98326025  0.36704690  0.38463385     0.13600
H662        H  0.04484214  0.56717137  0.57849690     0.13600
H663        H  0.03144605  0.50709461  0.61689753     0.13600
H664        H  0.02472975  0.49339348  0.46130559     0.26900
H665        H  0.00244282  0.43473524  0.50204178     0.26900
C666        C  0.78870075  0.28561904  0.56725488     0.81000
N667        N  0.82369326  0.29604905  0.57641252    -0.77300
C668        C  0.84902395  0.30469513  0.54979142     0.83400
N669        N  0.83892941  0.30292370  0.51341768    -0.77300
C670        C  0.80401100  0.29270513  0.50356878     0.83500
N671        N  0.77837838  0.28422473  0.53059701    -0.79000
C672        C  0.70090956  0.18692099  0.46968689     0.81000
N673        N  0.69978407  0.19544001  0.50718614    -0.77300
C674        C  0.69982000  0.16722195  0.53332744     0.83400
N675        N  0.70084858  0.13106253  0.52135093    -0.77300
C676        C  0.70204610  0.12266359  0.48419261     0.83500
N677        N  0.70190494  0.15075961  0.45902119    -0.79000
C678        C  0.79682468  0.71269849  0.04719947     0.81000
N679        N  0.82739144  0.69075606  0.04291659    -0.77300
C680        C  0.83495096  0.67485482  0.00947434     0.83400
N681        N  0.81266719  0.68131326  0.98024732    -0.77300
C682        C  0.78253919  0.70311212  0.98320433     0.83500
N683        N  0.77376050  0.71905803  0.01710260    -0.79000
C684        C  0.68038682  0.77690280  0.95859204     0.81000
N685        N  0.64327994  0.76815483  0.96144429    -0.77300
C686        C  0.62757875  0.76165889  0.99558095     0.83400
N687        N  0.64906257  0.76505806  0.02620080    -0.77300
C688        C  0.68495256  0.77526243  0.02448667     0.83500
N689        N  0.70123038  0.78126294  0.99043583    -0.79000
C690        C  0.99857495  0.69191163  0.78101815     0.81000
N691        N  0.00066074  0.65633985  0.76987166    -0.77300
C692        C  0.97054550  0.63411554  0.76695235     0.83400
N693        N  0.93620153  0.64875711  0.77502417    -0.77300
C694        C  0.93262020  0.68571360  0.78468147     0.83500
N695        N  0.96426800  0.70725209  0.78851488    -0.79000
C696        C  0.02166167  0.79706607  0.71188816     0.81000
N697        N  0.01785016  0.82538595  0.68720476    -0.77300
C698        C  0.98476135  0.83148850  0.67036257     0.83400
N699        N  0.95530961  0.81005176  0.67871257    -0.77300
C700        C  0.95774227  0.78237046  0.70356933     0.83500
N701        N  0.99123415  0.77526984  0.72073985    -0.79000
C702        C  0.68825675  0.97239266  0.80472165     0.81000
N703        N  0.66009811  0.97356385  0.82939960    -0.77300
C704        C  0.65172742  0.00495063  0.84809986     0.83400
N705        N  0.67192648  0.03622357  0.84231695    -0.77300
C706        C  0.69999715  0.03642210  0.81689627     0.83500
N707        N  0.70873345  0.00410458  0.79783923    -0.79000
C708        C  0.76820304  0.00980969  0.70771755     0.81000
N709        N  0.77485318  0.97574386  0.72381478    -0.77300
C710        C  0.76572849  0.94358725  0.70469373     0.83400
N711        N  0.75148163  0.94622378  0.66927861    -0.77300
C712        C  0.74432432  0.98032086  0.65391311     0.83500
N713        N  0.75266222  0.01116647  0.67378763    -0.79000
C714        C  0.27393216  0.22808823  0.96766598     0.81000
N715        N  0.31170570  0.22588734  0.96949528    -0.77300
C716        C  0.32962443  0.22330518  0.00268124     0.83400
N717        N  0.30956977  0.22283584  0.03465566    -0.77300
C718        C  0.27211147  0.22419730  0.03507183     0.83500
N719        N  0.25349388  0.22660598  0.00098960    -0.79000
C720        C  0.21093550  0.34693404  0.03298116     0.81000
N721        N  0.20801139  0.38263789  0.04427284    -0.77300
C722        C  0.20563700  0.41077079  0.01939421     0.83400
N723        N  0.20669167  0.40248704  0.98223411    -0.77300
C724        C  0.21057201  0.36642473  0.97084280     0.83500
N725        N  0.21214034  0.33855886  0.99626284    -0.79000
C726        C  0.68092842  0.00984760  0.23143440     0.81000
N727        N  0.70849046  0.98416659  0.22417593    -0.77300
C728        C  0.70091145  0.94693010  0.22777874     0.83400
N729        N  0.66661455  0.93597373  0.23830606    -0.77300
C730        C  0.63882477  0.96045634  0.24500527     0.89100
N731        N  0.64603194  0.99769008  0.24115944    -0.79000
C732        C  0.79719672  0.97590865  0.31452388     0.81000
N733        N  0.81086368  0.97645866  0.34926129    -0.77300
C734        C  0.81886689  0.00859532  0.36684188     0.83400
N735        N  0.81286199  0.04145123  0.34920995    -0.77300
C736        C  0.79860363  0.04178721  0.31402279     0.83500
N737        N  0.79078524  0.00874457  0.29622819    -0.79000
N738        N  0.46127487  0.07114057  0.95747622    -0.35900
N739        N  0.46340328  0.99252508  0.97402037    -0.56400
N740        N  0.46733815  0.00252928  0.05327003    -0.35900
N741        N  0.46730566  0.08086514  0.03904766    -0.56400
C742        C  0.44457201  0.05502164  0.92772127     0.27700
C743        C  0.44425473  0.10413469  0.96404896     0.27700
C744        C  0.45126288  0.96863720  0.05079652     0.27700
C745        C  0.45828488  0.01721736  0.08663398     0.27700
C746        C  0.47004929  0.99258001  0.93709274     0.36300
C747        C  0.47061852  0.95785692  0.98620782     0.36300
C748        C  0.47286968  0.11535422  0.02534457     0.36300
C749        C  0.47897764  0.08126192  0.07482728     0.36300
C750        C  0.41671938  0.07839144  0.91474140    -0.21200
C751        C  0.41635402  0.10922151  0.93771437    -0.21200
C752        C  0.43064730  0.96193664  0.08289629    -0.21200
C753        C  0.43517242  0.99255266  0.10555148    -0.21200
C754        C  0.48244967  0.95777626  0.92565614    -0.22200
C755        C  0.48269490  0.93561823  0.95686286    -0.22200
C756        C  0.48871894  0.13788518  0.05253398    -0.22200
C757        C  0.49247820  0.11623000  0.08400088    -0.22200
C758        C  0.45302000  0.01889835  0.91377924    -0.17600
C759        C  0.45297459  0.12848918  0.99414705    -0.17600
C760        C  0.47127846  0.05205046  0.10001336    -0.17600
C761        C  0.45533812  0.94453820  0.01983954    -0.17600
H762        H  0.39722535  0.07319853  0.89238847     0.15300
H763        H  0.39638777  0.13166876  0.93583953     0.15300
H764        H  0.41320730  0.93828833  0.08938751     0.15300
H765        H  0.42151010  0.99656178  0.13216568     0.15300
H766        H  0.48655612  0.94833356  0.89722455     0.13600
H767        H  0.48762079  0.90584537  0.95740676     0.13600
H768        H  0.49365746  0.16760083  0.05083056     0.13600
H769        H  0.50148387  0.12583358  0.11114904     0.13600
H770        H  0.48304532  0.06004803  0.97287140     0.26900
H771        H  0.48441183  0.01483124  0.03348256     0.26900
N772        N  0.54775898  0.91719839  0.01652281    -0.35900
N773        N  0.55396805  0.99429523  0.03497750    -0.56400
N774        N  0.54848835  0.98064031  0.11217446    -0.35900
N775        N  0.53957622  0.90014219  0.09435647    -0.56400
C776        C  0.56809235  0.93148193  0.98810445     0.27700
C777        C  0.55684295  0.88090632  0.01927227     0.27700
C778        C  0.57228932  0.00967650  0.10909536     0.27700
C779        C  0.56086966  0.95982164  0.14056577     0.27700
C780        C  0.55197137  0.99685378  0.99787111     0.36300
C781        C  0.55303114  0.02928968  0.04804835     0.36300
C782        C  0.52824271  0.86730895  0.07983255     0.36300
C783        C  0.52940808  0.90081165  0.13067415     0.36300
C784        C  0.59115282  0.90436035  0.97318229    -0.21200
C785        C  0.58456193  0.87252551  0.99330968    -0.21200
C786        C  0.60036632  0.00702883  0.13522785    -0.21200
C787        C  0.59348935  0.97493646  0.15463506    -0.21200
C788        C  0.54802450  0.03368653  0.98700688    -0.22200
C789        C  0.54896397  0.05446855  0.01902343    -0.22200
C790        C  0.50976249  0.84698376  0.10716981    -0.22200
C791        C  0.51074115  0.86824558  0.13959979    -0.22200
C792        C  0.56545383  0.96833932  0.97516248    -0.17600
C793        C  0.53898171  0.85527419  0.04352221    -0.17600
C794        C  0.54165025  0.92901334  0.15536210    -0.17600
C795        C  0.56945397  0.03752562  0.08211433    -0.17600
H796        H  0.61109154  0.90733151  0.95064434     0.15300
H797        H  0.59921103  0.84645605  0.98957789     0.15300
H798        H  0.62402373  0.02537044  0.13890770     0.15300
H799        H  0.61142694  0.96316332  0.17544194     0.15300
H800        H  0.54859718  0.04459975  0.95886063     0.13600
H801        H  0.55087454  0.08454214  0.02050034     0.13600
H802        H  0.49765203  0.81950749  0.10436583     0.13600
H803        H  0.50000592  0.86025875  0.16668691     0.13600
H804        H  0.52729535  0.93082861  0.03207350     0.26900
H805        H  0.52426257  0.97584867  0.09687281     0.26900
C806        C  0.71490405  0.19508330  0.06604889     0.81000
N807        N  0.68894203  0.16927939  0.07378365    -0.77300
C808        C  0.66826926  0.15412084  0.04666034     0.83400
N809        N  0.67330799  0.16444423  0.01076023    -0.77300
C810        C  0.69869734  0.19096637  0.00192425     0.83500
N811        N  0.72002571  0.20673170  0.02978453    -0.79000
C812        C  0.79042273  0.30115205  0.97042473     0.81000
N813        N  0.79648042  0.33793206  0.96414164    -0.77300
C814        C  0.79946671  0.36240752  0.99286238     0.83400
N815        N  0.79732914  0.34977545  0.02841035    -0.77300
C816        C  0.79199238  0.31318083  0.03585579     0.83500
N817        N  0.78832270  0.28840879  0.00663941    -0.79000
C818        C  0.34714222  0.97623928  0.21320605     0.81000
N819        N  0.31733735  0.99936435  0.21442536    -0.77300
C820        C  0.32299090  0.03642158  0.21594479     0.83400
N821        N  0.35781146  0.05033039  0.21615162    -0.77300
C822        C  0.38788401  0.02785058  0.21414943     0.83500
N823        N  0.38248263  0.99024702  0.21245165    -0.79000
C824        C  0.20166673  0.03738348  0.28722874     0.81000
N825        N  0.21064172  0.00466997  0.26780462    -0.77300
C826        C  0.20758603  0.97007126  0.28549634     0.83400
N827        N  0.19605813  0.96923960  0.32139013    -0.77300
C828        C  0.18711406  0.00062726  0.34028992     0.83500
N829        N  0.18964114  0.03426491  0.32308379    -0.79000
C830        C  0.98133967  0.70662058  0.19948974     0.81000
N831        N  0.00916905  0.72695615  0.21666001    -0.77300
C832        C  0.04464098  0.72632026  0.20179914     0.83400
N833        N  0.05172377  0.70548627  0.17156111    -0.77300
C834        C  0.02498458  0.68537481  0.15517590     0.83500
N835        N  0.98974394  0.68572199  0.16887537    -0.79000
C836        C  0.95283128  0.78995623  0.30916046     0.81000
N837        N  0.94700626  0.79306748  0.34639660    -0.77300
C838        C  0.97591556  0.79567616  0.37042925     0.83400
N839        N  0.01119370  0.79592960  0.35693993    -0.77300
C840        C  0.01809994  0.79342616  0.31987371     0.83500
N841        N  0.98871398  0.79049275  0.29545092    -0.79000
N842        N  0.94175638  0.48226488  0.05869246    -0.35900
N843        N  0.95716195  0.48790211  0.98045932    -0.56400
N844        N  0.03732867  0.49034669  0.98878121    -0.35900
N845        N  0.02405720  0.48591022  0.06665822    -0.56400
C846        C  0.91103110  0.46784497  0.04233381     0.27700
C847        C  0.94885183  0.46179966  0.08950520     0.27700
C848        C  0.03320277  0.47301696  0.95562669     0.27700
C849        C  0.07011125  0.47933506  0.00319001     0.27700
C850        C  0.92043918  0.49564261  0.98090213     0.36300
C851        C  0.96943985  0.49478585  0.94564117     0.36300
C852        C  0.01065146  0.48835182  0.10164919     0.36300
C853        C  0.05962017  0.49809071  0.06755945     0.36300
C854        C  0.89794164  0.43824628  0.06353651    -0.21200
C855        C  0.92185268  0.43430182  0.09308704    -0.21200
C856        C  0.06355816  0.44973465  0.94934391    -0.21200
C857        C  0.08697207  0.45398039  0.97925033    -0.21200
C858        C  0.90939302  0.50875078  0.94633502    -0.22200
C859        C  0.94051993  0.50809201  0.92387129    -0.22200
C860        C  0.03774850  0.50258331  0.12518066    -0.22200
C861        C  0.06869304  0.50948747  0.10334646    -0.22200
C862        C  0.89654444  0.47928290  0.00737794    -0.17600
C863        C  0.98003937  0.46683673  0.11316569    -0.17600
C864        C  0.08453651  0.49187441  0.03764429    -0.17600
C865        C  0.00233397  0.47825219  0.93181274    -0.17600
H866        H  0.87510096  0.41960843  0.05740761     0.15300
H867        H  0.92011512  0.41232285  0.11356862     0.15300
H868        H  0.06829648  0.43049361  0.92661676     0.15300
H869        H  0.11258398  0.43868861  0.98355318     0.15300
H870        H  0.88116497  0.51408800  0.93721846     0.13600
H871        H  0.94107780  0.51312535  0.89416065     0.13600
H872        H  0.03618474  0.50497091  0.15526432     0.13600
H873        H  0.09552835  0.51891435  0.11324983     0.13600
H874        H  0.95752592  0.50453443  0.04894433     0.26900
H875        H  0.01905523  0.50936724  0.00078670     0.26900
N876        N  0.00489645  0.57094532  0.91817503    -0.35900
N877        N  0.02342255  0.57980944  0.99409046    -0.56400
N878        N  0.10031263  0.57352911  0.97903522    -0.35900
N879        N  0.08239211  0.56145609  0.89967368    -0.56400
C880        C  0.97684402  0.59251389  0.93144248     0.27700
C881        C  0.00714174  0.57696543  0.88125222     0.27700
C882        C  0.09787565  0.59658211  0.00887591     0.27700
C883        C  0.12926712  0.58543371  0.95846990     0.27700
C884        C  0.98638099  0.57834239  0.99695811     0.36300
C885        C  0.03673550  0.57708074  0.02873157     0.36300
C886        C  0.06749812  0.54807263  0.86777021     0.36300
C887        C  0.11899407  0.55264514  0.89973439     0.36300
C888        C  0.96180302  0.61347480  0.90289281    -0.21200
C889        C  0.98124352  0.60393956  0.87118392    -0.21200
C890        C  0.12498526  0.62383128  0.00700682    -0.21200
C891        C  0.14440006  0.61707355  0.97466735    -0.21200
C892        C  0.97552244  0.57332940  0.03370672    -0.22200
C893        C  0.00770017  0.57246638  0.05407877    -0.22200
C894        C  0.09499078  0.52979235  0.84736005    -0.22200
C895        C  0.12783393  0.53297912  0.86760096    -0.22200
C896        C  0.96413005  0.59221858  0.96860207    -0.17600
C897        C  0.03043554  0.55653813  0.85659613    -0.17600
C898        C  0.14376768  0.56640319  0.92713498    -0.17600
C899        C  0.07082499  0.59351122  0.03693627    -0.17600
H900        H  0.93940850  0.63362488  0.90469424     0.15300
H901        H  0.97706410  0.61600898  0.84397565     0.15300
H902        H  0.12947961  0.64676554  0.02614820     0.15300
H903        H  0.16595350  0.63446895  0.96340659     0.15300
H904        H  0.94746649  0.57394287  0.04491899     0.13600
H905        H  0.00930815  0.57297306  0.08421992     0.13600
H906        H  0.09199674  0.51634324  0.82048686     0.13600
H907        H  0.15505846  0.52286724  0.85928029     0.13600
H908        H  0.02038372  0.55132081  0.93284759     0.26900
H909        H  0.08420283  0.54993966  0.97364097     0.26900
C910        C  0.29377554  0.80773618  0.04936061     0.81000
N911        N  0.32884284  0.82196711  0.04970159    -0.77300
C912        C  0.34695772  0.82874683  0.01723826     0.83400
N913        N  0.32973532  0.82142566  0.98463698    -0.77300
C914        C  0.29480607  0.80799447  0.98360659     0.83500
N915        N  0.27621068  0.80098612  0.01615899    -0.79000
C916        C  0.21031996  0.71952243  0.95277171     0.81000
N917        N  0.20461610  0.72418778  0.99031692    -0.77300
C918        C  0.21496074  0.69636856  0.01451163     0.83400
N919        N  0.22893451  0.66364129  0.00039693    -0.77300
C920        C  0.23447470  0.65920343  0.96281240     0.83500
N921        N  0.22553891  0.68767489  0.94004279    -0.79000
C922        C  0.02980721  0.28374560  0.21921268     0.81000
N923        N  0.02770717  0.31924665  0.20709078    -0.77300
C924        C  0.99481246  0.33730523  0.20399187     0.83400
N925        N  0.96270139  0.31951133  0.21294832    -0.77300
C926        C  0.96263986  0.28373215  0.22508814     0.83500
N927        N  0.99677609  0.26522492  0.22830735    -0.79000
C928        C  0.03106954  0.20946558  0.34587739     0.81000
N929        N  0.99432070  0.21054297  0.33833292    -0.77300
C930        C  0.96948800  0.20367329  0.36598647     0.83400
N931        N  0.98142850  0.19566181  0.40110002    -0.77300
C932        C  0.01863682  0.19492031  0.40846943     0.83500
N933        N  0.04306547  0.20171363  0.38057029    -0.79000
C934        C  0.96912032  0.30968276  0.80475943     0.81000
N935        N  0.96995057  0.34497443  0.81707617    -0.77300
C936        C  0.00220929  0.36301847  0.82330571     0.83400
N937        N  0.03495681  0.34526033  0.81660110    -0.77300
C938        C  0.03518877  0.30961328  0.80345345     0.83500
N939        N  0.00196475  0.29129755  0.79770830    -0.79000
C940        C  0.93818179  0.22538001  0.71550112     0.81000
N941        N  0.92490288  0.23580762  0.68207119    -0.77300
C942        C  0.94718820  0.24118054  0.65213457     0.83400
N943        N  0.98489209  0.23672672  0.65644571    -0.77300
C944        C  0.99958600  0.22766895  0.69060851     0.83500
N945        N  0.97583486  0.22107904  0.72010443    -0.79000
N946        N  0.04751778  0.93735961  0.48978863    -0.35900
N947        N  0.96879281  0.95563053  0.49516614    -0.56400
N948        N  0.98032142  0.03517153  0.49852641    -0.35900
N949        N  0.05791412  0.01848290  0.49498954    -0.56400
C950        C  0.03028611  0.90726973  0.47504816     0.27700
C951        C  0.07903931  0.94326483  0.46971583     0.27700
C952        C  0.94598348  0.03351603  0.48357977     0.27700
C953        C  0.99551071  0.06816180  0.48920067     0.27700
C954        C  0.96797120  0.91868523  0.50162620     0.36300
C955        C  0.93414188  0.96867231  0.50183490     0.36300
C956        C  0.09246080  0.00411833  0.49711013     0.36300
C957        C  0.05995809  0.05394794  0.50715229     0.36300
C958        C  0.05195115  0.89302495  0.44609495    -0.21200
C959        C  0.08257053  0.91579921  0.44266333    -0.21200
C960        C  0.93928856  0.06588410  0.46359111    -0.21200
C961        C  0.97049373  0.08766223  0.46708018    -0.21200
C962        C  0.93258135  0.90818511  0.51320018    -0.22200
C963        C  0.91096270  0.93981874  0.51276840    -0.22200
C964        C  0.11689400  0.03056806  0.51094722    -0.22200
C965        C  0.09614192  0.06211722  0.51787171    -0.22200
C966        C  0.99433283  0.89429795  0.48552525    -0.17600
C967        C  0.10302645  0.97426093  0.47418782    -0.17600
C968        C  0.03162918  0.08017018  0.49991576    -0.17600
C969        C  0.92166172  0.00280201  0.48710732    -0.17600
H970        H  0.04555610  0.87008672  0.42758643     0.15300
H971        H  0.10397274  0.91303243  0.42153375     0.15300
H972        H  0.91531853  0.07309149  0.44698107     0.15300
H973        H  0.97456227  0.11388744  0.45295197     0.15300
H974        H  0.92250909  0.88005633  0.51738597     0.13600
H975        H  0.88109449  0.94107627  0.51700238     0.13600
H976        H  0.14694917  0.02839984  0.51233744     0.13600
H977        H  0.10713687  0.08898901  0.52601551     0.13600
H978        H  0.03765876  0.95363224  0.51177792     0.26900
H979        H  0.99283407  0.01469071  0.51428391     0.26900
N980        N  0.87290469  0.08398938  0.56935356    -0.35900
N981        N  0.88978191  0.00368129  0.57619929    -0.56400
N982        N  0.96693955  0.02376321  0.58579609    -0.35900
N983        N  0.95556901  0.10176412  0.57368948    -0.56400
C984        C  0.84069838  0.06851439  0.55732936     0.27700
C985        C  0.87461798  0.11964937  0.55726652     0.27700
C986        C  0.96883533  0.98659779  0.58365670     0.27700
C987        C  0.00186822  0.03655377  0.58253350     0.27700
C988        C  0.85380981  0.00791684  0.58603596     0.36300
C989        C  0.90329673  0.97635734  0.59826463     0.36300
C990        C  0.93540405  0.13095628  0.58578488     0.36300
C991        C  0.98561770  0.10049100  0.59632318     0.36300
C992        C  0.82127478  0.09499872  0.53690962    -0.21200
C993        C  0.84272495  0.12743930  0.53701722    -0.21200
C994        C  0.00525156  0.97532374  0.57701054    -0.21200
C995        C  0.02644296  0.00711206  0.57702989    -0.21200
C996        C  0.84478699  0.98357300  0.61479597    -0.22200
C997        C  0.87611335  0.96308433  0.62213495    -0.22200
C998        C  0.95248537  0.14771861  0.61609703    -0.22200
C999        C  0.98496109  0.12893501  0.62228469    -0.22200
C1000       C  0.82875371  0.03198627  0.56748365    -0.17600
C1001       C  0.90364984  0.14462084  0.56733803    -0.17600
C1002       C  0.01174018  0.07175165  0.59546568    -0.17600
C1003       C  0.94028037  0.96386082  0.59689836    -0.17600
H1004       H  0.79439739  0.09153896  0.52374233     0.15300
H1005       H  0.83545567  0.15372656  0.52420215     0.15300
H1006       H  0.01581031  0.94706402  0.57614428     0.15300
H1007       H  0.05657710  0.00826421  0.57647097     0.15300
H1008       H  0.81868074  0.98141332  0.62964364     0.13600
H1009       H  0.87894635  0.94188965  0.64339274     0.13600
H1010       H  0.94161008  0.16984173  0.63318931     0.13600
H1011       H  0.00449120  0.13407939  0.64466988     0.13600
H1012       H  0.89197314  0.07157475  0.58707131     0.26900
H1013       H  0.94428901  0.03885025  0.59559031     0.26900
C1014       C  0.28765618  0.02986601  0.80367167     0.81000
N1015       N  0.32423039  0.02477112  0.81008583    -0.77300
C1016       C  0.33891360  0.99038526  0.81344707     0.83400
N1017       N  0.31632882  0.96014895  0.81058219    -0.77300
C1018       C  0.27939283  0.96432163  0.80318435     0.83500
N1019       N  0.26467475  0.99953825  0.79987074    -0.79000
C1020       C  0.17537898  0.99101791  0.70886245     0.81000
N1021       N  0.19392911  0.01895610  0.72786381    -0.77300
C1022       C  0.18185382  0.05526357  0.72418930     0.83400
N1023       N  0.15305507  0.06290547  0.70180201    -0.77300
C1024       C  0.13524912  0.03583501  0.68338875     0.83500
N1025       N  0.14589773  0.99989388  0.68705821    -0.79000
O1026       O  0.19081233  0.25625844  0.36095797    -0.87400
C1027       C  0.28730679  0.13159303  0.22656132     1.12600
O1028       O  0.21392420  0.25575902  0.27996593    -1.35300
O1029       O  0.33230069  0.19264486  0.30562631    -0.88900
O1030       O  0.19500047  0.31370568  0.33669330    -0.89600
O1031       O  0.26461111  0.33461362  0.28588733    -0.78400
O1032       O  0.25785331  0.21691736  0.33611758    -1.00500
C1033       C  0.34788523  0.27652295  0.23773519     1.22600
O1034       O  0.24712468  0.28161584  0.21710686    -1.35400
Mn1035     Mn  0.22030664  0.22847898  0.22679000     1.82100
O1036       O  0.32787519  0.28863745  0.26439286    -0.77500
O1037       O  0.35294428  0.19018522  0.24644506    -0.86900
C1038       C  0.25517967  0.21794789  0.14996206     1.13700
C1039       C  0.35795175  0.18840015  0.28151013     1.08400
O1040       O  0.16384702  0.23817808  0.20995808    -0.78400
O1041       O  0.27403942  0.21987531  0.25159139    -1.32100
O1042       O  0.16223856  0.29403357  0.23100144    -0.97600
C1043       C  0.27947064  0.36542759  0.18416690     1.07200
Mn1044     Mn  0.31338758  0.20968722  0.20820578     1.48600
O1045       O  0.24445816  0.36119699  0.18778149    -0.86800
Mn1046     Mn  0.17670425  0.30225706  0.28313120     1.49600
O1047       O  0.15055427  0.20912365  0.30485596    -0.90700
C1048       C  0.27353212  0.24333198  0.35149098     1.20400
C1049       C  0.12597596  0.23441249  0.30332455     1.12400
Mn1050     Mn  0.26972529  0.27598668  0.27252252     1.81000
O1051       O  0.28287513  0.23063435  0.16610529    -0.95900
Mn1052     Mn  0.20516067  0.21497033  0.32200181     1.49300
C1053       C  0.19558607  0.29129382  0.36394299     1.08900
Mn1054     Mn  0.29153099  0.28321290  0.17705144     1.49900
C1055       C  0.22059282  0.30148909  0.12890517     1.11800
O1056       O  0.21121204  0.33995244  0.26020734    -1.01700
O1057       O  0.29137725  0.15646477  0.20174221    -0.91300
C1058       C  0.23853066  0.35549170  0.27431587     1.23100
O1059       O  0.33154933  0.26186905  0.21102969    -1.02100
O1060       O  0.29013489  0.13744926  0.26136396    -0.89500
O1061       O  0.25541830  0.29970847  0.13472517    -0.89100
O1062       O  0.13303919  0.26908050  0.30297129    -0.89100
Mn1063     Mn  0.27636891  0.18119043  0.29697397     1.47900
O1064       O  0.22750313  0.20926830  0.17018933    -0.77600
C1065       C  0.14498122  0.26663019  0.21901185     1.16200
O1066       O  0.28487751  0.26964309  0.33069037    -0.76300
O1067       O  0.20070494  0.17210914  0.23730125    -0.75900
Mn1068     Mn  0.20530043  0.32292963  0.20839461     1.51100
O1069       O  0.30303532  0.33920255  0.18831445    -0.88300
O1070       O  0.22304746  0.17068160  0.29224729    -0.95800
O1071       O  0.19606850  0.30340988  0.15450918    -0.90800
C1072       C  0.20854977  0.15336603  0.26624264     1.14000
C1073       C  0.07772829  0.08293335  0.61117343    -0.12600
C1074       C  0.04227955  0.07131623  0.62215213     0.09500
C1075       C  0.03736880  0.04988129  0.65457536    -0.12600
C1076       C  0.06810931  0.03683627  0.67371249    -0.12600
C1077       C  0.10366634  0.04633596  0.66125235     0.09500
C1078       C  0.10858097  0.07063964  0.63102556    -0.12600
H1079       H  0.08144646  0.09978027  0.58645496     0.13500
H1080       H  0.00982439  0.04069686  0.66302105     0.13500
H1081       H  0.06424324  0.01938174  0.69807020     0.13500
H1082       H  0.13624048  0.07924842  0.62240625     0.13500
C1083       C  0.93422357  0.20551454  0.55662994    -0.12600
C1084       C  0.90092738  0.18620910  0.56542059     0.09500
C1085       C  0.87625988  0.20366145  0.59025109    -0.12600
C1086       C  0.88979738  0.23139537  0.61424787    -0.12600
C1087       C  0.92847204  0.23954173  0.61480618     0.09500
C1088       C  0.94906950  0.23089069  0.58255797    -0.12600
H1089       H  0.95293570  0.19403191  0.53591857     0.13500
H1090       H  0.84944029  0.19118647  0.59635811     0.13500
H1091       H  0.87185312  0.24015094  0.63701466     0.13500
H1092       H  0.97831995  0.23809767  0.58062239     0.13500
C1093       C  0.05815551  0.21661026  0.31818856    -0.12500
C1094       C  0.08815517  0.22375015  0.30580148    -0.14100
C1095       C  0.06499198  0.15617844  0.44083632    -0.12600
C1096       C  0.03287841  0.17848075  0.44315264     0.09500
C1097       C  0.01080248  0.17693039  0.47544502    -0.12600
C1098       C  0.01641214  0.14811000  0.50106845    -0.12600
C1099       C  0.04186682  0.11952277  0.49227584     0.09500
C1100       C  0.06902823  0.12618491  0.46482676    -0.12600
H1101       H  0.08352082  0.15769961  0.41695216     0.13500
H1102       H  0.98666821  0.19482461  0.47833934     0.13500
H1103       H  0.99605876  0.14400894  0.52300983     0.13500
H1104       H  0.08959191  0.10526259  0.45760608     0.13500
C1105       C  0.10310960  0.26594580  0.21887329    -0.12500
C1106       C  0.06851945  0.26842237  0.22054323    -0.14100
C1107       C  0.19947055  0.59267161  0.89594031    -0.12600
C1108       C  0.18519326  0.56796020  0.92255702     0.09500
C1109       C  0.20677486  0.56203933  0.95498093    -0.12600
C1110       C  0.23162961  0.58966391  0.96697282    -0.12600
C1111       C  0.23651418  0.62151848  0.94495838     0.09500
C1112       C  0.22635495  0.61880409  0.90684203    -0.12600
H1113       H  0.18510676  0.59677831  0.86973189     0.13500
H1114       H  0.19786656  0.54200155  0.97541273     0.13500
H1115       H  0.24077151  0.58939820  0.99574941     0.13500
H1116       H  0.23232456  0.64139604  0.88772083     0.13500
C1117       C  0.96859022  0.40507787  0.86586909    -0.12600
C1118       C  0.00037576  0.39839810  0.84392869     0.09500
C1119       C  0.03045014  0.42330477  0.84574822    -0.12600
C1120       C  0.02956619  0.45281684  0.87143331    -0.12600
C1121       C  0.99965825  0.45616165  0.89677314     0.09500
C1122       C  0.96861014  0.43292537  0.89240599    -0.12600
H1123       H  0.94470175  0.38664072  0.86519889     0.13500
H1124       H  0.05506521  0.41899035  0.82869657     0.13500
H1125       H  0.05369624  0.47059395  0.87402548     0.13500
H1126       H  0.94534480  0.43403304  0.91159140     0.13500
C1127       C  0.96029089  0.43094161  0.17044402    -0.12600
C1128       C  0.98710213  0.43898412  0.14297947     0.09500
C1129       C  0.01896880  0.41630427  0.14008115    -0.12600
C1130       C  0.02257180  0.38469320  0.16204388    -0.12600
C1131       C  0.99392122  0.37445651  0.18670115     0.09500
C1132       C  0.96329986  0.39840475  0.19168386    -0.12600
H1133       H  0.93572351  0.44826936  0.17338316     0.13500
H1134       H  0.04005417  0.42159613  0.11902560     0.13500
H1135       H  0.04658418  0.36687281  0.15764813     0.13500
H1136       H  0.94110499  0.39128211  0.21094631     0.13500
C1137       C  0.94446990  0.83891953  0.41292659    -0.12600
C1138       C  0.96950259  0.80931592  0.40849092     0.09500
C1139       C  0.99546080  0.80180612  0.43677621    -0.12600
C1140       C  0.00000625  0.82705229  0.46621945    -0.12600
C1141       C  0.97970793  0.86052963  0.46636957     0.09500
C1142       C  0.95014655  0.86486568  0.44104976    -0.12600
H1143       H  0.92423070  0.84534416  0.39150159     0.13500
H1144       H  0.01486620  0.77883339  0.43388101     0.13500
H1145       H  0.02264304  0.82300050  0.48571215     0.13500
H1146       H  0.93413752  0.89039301  0.44007515     0.13500
C1147       C  0.03164241  0.67375286  0.08811334    -0.12600
C1148       C  0.03639022  0.66158390  0.12472914     0.09500
C1149       C  0.05946742  0.63101711  0.13248332    -0.12600
C1150       C  0.07548824  0.61081962  0.10340273    -0.12600
C1151       C  0.06870053  0.62147500  0.06661074     0.09500
C1152       C  0.04805396  0.65392131  0.05908056    -0.12600
H1153       H  0.01536716  0.69846075  0.08210882     0.13500
H1154       H  0.06471673  0.62269124  0.16103836     0.13500
H1155       H  0.09112380  0.58579169  0.10941059     0.13500
H1156       H  0.04211099  0.66192262  0.03055918     0.13500
C1157       C  0.20414027  0.07665139  0.27224540    -0.12500
C1158       C  0.20479366  0.11129877  0.26781856    -0.14100
C1159       C  0.15967619  0.96041302  0.43406028    -0.12600
C1160       C  0.12957547  0.98357728  0.44353823     0.09500
C1161       C  0.12184794  0.01479693  0.42107003    -0.12600
C1162       C  0.14247368  0.02179822  0.38891194    -0.12600
C1163       C  0.17078884  0.99727252  0.37793707     0.09500
C1164       C  0.17989556  0.96697494  0.40117729    -0.12600
H1165       H  0.16621807  0.93633555  0.45100917     0.13500
H1166       H  0.09851256  0.03292934  0.42742650     0.13500
H1167       H  0.13459236  0.04503786  0.37136911     0.13500
H1168       H  0.20181119  0.94771244  0.39324948     0.13500
C1169       C  0.29349378  0.06231561  0.21388474    -0.12500
C1170       C  0.28344273  0.09391884  0.21563782    -0.14100
C1171       C  0.84041857  0.40626079  0.95924160    -0.12600
C1172       C  0.81275147  0.40064506  0.98628424     0.09500
C1173       C  0.80563330  0.42885336  0.01268201    -0.12600
C1174       C  0.82990459  0.45921726  0.01577538    -0.12600
C1175       C  0.86217033  0.46050829  0.99350699     0.09500
C1176       C  0.86536100  0.43563392  0.96320896    -0.12600
H1177       H  0.84625843  0.38516168  0.93833791     0.13500
H1178       H  0.78387931  0.42535081  0.03341762     0.13500
H1179       H  0.82653469  0.47841396  0.03892039     0.13500
H1180       H  0.88973367  0.43575237  0.94543421     0.13500
C1181       C  0.62978378  0.05915091  0.05875443    -0.12600
C1182       C  0.59787406  0.06660840  0.08030595     0.09500
C1183       C  0.58980887  0.10289791  0.09194454    -0.12600
C1184       C  0.61264532  0.13202736  0.08031584    -0.12600
C1185       C  0.64295651  0.12464000  0.05662401     0.09500
C1186       C  0.65202037  0.08819299  0.04654626    -0.12600
H1187       H  0.63590622  0.03103817  0.04941097     0.13500
H1188       H  0.56541925  0.10865723  0.10875324     0.13500
H1189       H  0.60641983  0.16026713  0.08913884     0.13500
H1190       H  0.67623812  0.08231288  0.02934630     0.13500
C1191       C  0.43068224  0.02417759  0.84730178    -0.12600
C1192       C  0.43225374  0.00426368  0.88087899     0.09500
C1193       C  0.40909931  0.97285069  0.88538326    -0.12600
C1194       C  0.38221994  0.96401434  0.85906306    -0.12600
C1195       C  0.37666654  0.98763087  0.82870445     0.09500
C1196       C  0.40262021  0.01621298  0.82150581    -0.12600
H1197       H  0.44850893  0.04814240  0.84291338     0.13500
H1198       H  0.40916479  0.95710183  0.91096385     0.13500
H1199       H  0.36252152  0.94200372  0.86536889     0.13500
H1200       H  0.39881148  0.03473615  0.79798434     0.13500
C1201       C  0.40940590  0.90519253  0.98734955    -0.12600
C1202       C  0.43338673  0.90951532  0.01780484     0.09500
C1203       C  0.43241745  0.88299409  0.04667071    -0.12600
C1204       C  0.40524016  0.85487175  0.04644006    -0.12600
C1205       C  0.38041930  0.85212108  0.01629386     0.09500
C1206       C  0.38425534  0.87636029  0.98599378    -0.12600
H1207       H  0.40836175  0.92557599  0.96529937     0.13500
H1208       H  0.45077420  0.88562850  0.07038760     0.13500
H1209       H  0.40275967  0.83631398  0.07011768     0.13500
H1210       H  0.36545168  0.87541928  0.96242481     0.13500
C1211       C  0.44354694  0.08674094  0.15329071    -0.12600
C1212       C  0.46844186  0.05925526  0.14085347     0.09500
C1213       C  0.47836192  0.03064796  0.16575544    -0.12600
C1214       C  0.45488212  0.02253752  0.19592120    -0.12600
C1215       C  0.42351419  0.04489785  0.20226662     0.09500
C1216       C  0.42198876  0.08013562  0.18495764    -0.12600
H1217       H  0.43595982  0.10990917  0.13555125     0.13500
H1218       H  0.49848935  0.00993831  0.15725267     0.13500
H1219       H  0.45753526  0.99593743  0.20985774     0.13500
H1220       H  0.39945135  0.09940469  0.19082063     0.13500
C1221       C  0.86632568  0.97680194  0.40362771    -0.12600
C1222       C  0.84052821  0.00602388  0.40123871     0.09500
C1223       C  0.83733378  0.03170412  0.43067610    -0.12600
C1224       C  0.86115957  0.02875715  0.46150809    -0.12600
C1225       C  0.88900704  0.00109771  0.46204661     0.09500
C1226       C  0.89039757  0.97459818  0.43336033    -0.12600
H1227       H  0.86960780  0.95669422  0.38123593     0.13500
H1228       H  0.81724422  0.05420534  0.42941114     0.13500
H1229       H  0.85995807  0.04962058  0.48327497     0.13500
H1230       H  0.91202699  0.95356714  0.43246613     0.13500
C1231       C  0.56948424  0.96900872  0.24121560    -0.12600
C1232       C  0.60013004  0.94518078  0.24553695     0.09500
C1233       C  0.59525918  0.90721864  0.23583238    -0.12600
C1234       C  0.56734641  0.89716314  0.21056955    -0.12600
C1235       C  0.54359419  0.92479983  0.19680589     0.09500
C1236       C  0.53998777  0.95780931  0.21822577    -0.12600
H1237       H  0.57126025  0.99796948  0.24951714     0.13500
H1238       H  0.61699735  0.88699653  0.24120907     0.13500
H1239       H  0.56956288  0.87050041  0.19650474     0.13500
H1240       H  0.52048441  0.97897091  0.20979972     0.13500
C1241       C  0.20886190  0.31889311  0.06068914    -0.12500
C1242       C  0.20989725  0.30539309  0.09111630    -0.14100
C1243       C  0.18122064  0.47455113  0.00715334    -0.12600
C1244       C  0.19012087  0.44660359  0.03275683     0.09500
C1245       C  0.17259571  0.44725022  0.06801509    -0.12600
C1246       C  0.13943556  0.46690022  0.07271563    -0.12600
C1247       C  0.12561682  0.48868597  0.04337309     0.09500
C1248       C  0.14962702  0.49653974  0.01320035    -0.12600
H1249       H  0.19490599  0.47551230  0.98017224     0.13500
H1250       H  0.18004308  0.42734676  0.08941788     0.13500
H1251       H  0.12239822  0.46010774  0.09669613     0.13500
H1252       H  0.14004127  0.51363641  0.99046543     0.13500
C1253       C  0.25545291  0.22027902  0.07327547    -0.12500
C1254       C  0.25319969  0.21734001  0.10792750    -0.14100
C1255       C  0.38028188  0.19101649  0.03574375    -0.12600
C1256       C  0.36887793  0.21116004  0.00425413     0.09500
C1257       C  0.39210985  0.21174459  0.97257343    -0.12600
C1258       C  0.42339296  0.18832874  0.97078285    -0.12600
C1259       C  0.43022159  0.16287362  0.99980251     0.09500
C1260       C  0.40976092  0.16632528  0.03315017    -0.12600
H1261       H  0.36368355  0.19040758  0.06104736     0.13500
H1262       H  0.38441482  0.22775291  0.94821020     0.13500
H1263       H  0.43953231  0.18702792  0.94520975     0.13500
H1264       H  0.41398155  0.14737637  0.05623802     0.13500
C1265       C  0.75728150  0.96357218  0.58789074    -0.12600
C1266       C  0.73796721  0.98640240  0.61323532     0.09500
C1267       C  0.73282809  0.02397447  0.60257458    -0.12600
C1268       C  0.76073765  0.04115883  0.58127968    -0.12600
C1269       C  0.78894600  0.01913029  0.56537191     0.09500
C1270       C  0.78193571  0.98034335  0.56239658    -0.12600
H1271       H  0.75993970  0.93395217  0.59301058     0.13500
H1272       H  0.71485872  0.04188924  0.61910414     0.13500
H1273       H  0.76335872  0.07117366  0.58267627     0.13500
H1274       H  0.80174753  0.96256210  0.54797446     0.13500
C1275       C  0.63515706  0.01609408  0.91352997    -0.12600
C1276       C  0.62524639  0.00207971  0.87855677     0.09500
C1277       C  0.59484278  0.97771207  0.87498407    -0.12600
C1278       C  0.57536705  0.96625201  0.90646386    -0.12600
C1279       C  0.58588321  0.97952608  0.94151417     0.09500
C1280       C  0.61589264  0.00441507  0.94495911    -0.12600
H1281       H  0.65933447  0.03386362  0.91684390     0.13500
H1282       H  0.58755854  0.96599998  0.84808058     0.13500
H1283       H  0.55313289  0.94618579  0.90361426     0.13500
H1284       H  0.62465114  0.01433173  0.97214408     0.13500
C1285       C  0.94992193  0.86284795  0.62066695    -0.12600
C1286       C  0.97794379  0.86427542  0.64790307     0.09500
C1287       C  0.99288871  0.89846977  0.65899314    -0.12600
C1288       C  0.97916510  0.93108799  0.64360293    -0.12600
C1289       C  0.95133817  0.92961766  0.61609360     0.09500
C1290       C  0.93639448  0.89546607  0.60512245    -0.12600
H1291       H  0.93749151  0.83654304  0.61254740     0.13500
H1292       H  0.01353684  0.90008934  0.68092528     0.13500
H1293       H  0.99042097  0.95756515  0.65284886     0.13500
H1294       H  0.91416926  0.89410247  0.58488083     0.13500
C1295       C  0.01668089  0.58396356  0.75903674    -0.12600
C1296       C  0.97882061  0.59333519  0.76509342     0.09500
C1297       C  0.95805747  0.56889959  0.78746311    -0.12600
C1298       C  0.97709308  0.54597480  0.81284973    -0.12600
C1299       C  0.01598493  0.55092816  0.81767705     0.09500
C1300       C  0.03599879  0.56546420  0.78736096    -0.12600
H1301       H  0.03307871  0.59966496  0.73906089     0.13500
H1302       H  0.92833811  0.57289427  0.79104891     0.13500
H1303       H  0.96091604  0.53228893  0.83434548     0.13500
H1304       H  0.06596035  0.56852854  0.78841171     0.13500
C1305       C  0.57550385  0.75913479  0.04021802    -0.12600
C1306       C  0.58660308  0.76142000  0.00246810     0.09500
C1307       C  0.56283567  0.78060748  0.97816205    -0.12600
C1308       C  0.53721227  0.80626877  0.99321213    -0.12600
C1309       C  0.53900447  0.81504315  0.03174983     0.09500
C1310       C  0.55428104  0.78806159  0.05544896    -0.12600
H1311       H  0.59082854  0.74162380  0.05942187     0.13500
H1312       H  0.56864847  0.78137412  0.94849270     0.13500
H1313       H  0.52331301  0.82514580  0.97422091     0.13500
H1314       H  0.55521989  0.79210705  0.08532939     0.13500
C1315       C  0.90183194  0.66099704  0.01804586    -0.12600
C1316       C  0.86723024  0.65126823  0.00323817     0.09500
C1317       C  0.86441290  0.62213198  0.97714072    -0.12600
C1318       C  0.89604529  0.60337822  0.96521766    -0.12600
C1319       C  0.93071434  0.61322329  0.97960150     0.09500
C1320       C  0.93358589  0.64229223  0.00591150    -0.12600
H1321       H  0.90447435  0.68403051  0.03746274     0.13500
H1322       H  0.83776954  0.61462841  0.96512554     0.13500
H1323       H  0.89353630  0.58169437  0.94443296     0.13500
H1324       H  0.96047853  0.65047963  0.01689120     0.13500
C1325       C  0.92784255  0.36789265  0.53275541    -0.12600
C1326       C  0.91905808  0.39493209  0.55980908     0.09500
C1327       C  0.89679764  0.38503151  0.59045797    -0.12600
C1328       C  0.87921346  0.35048748  0.59108259    -0.12600
C1329       C  0.88193728  0.32677079  0.55991158     0.09500
C1330       C  0.90919404  0.33388469  0.53269170    -0.12600
H1331       H  0.94566381  0.37479313  0.50931556     0.13500
H1332       H  0.88969158  0.40527953  0.61178610     0.13500
H1333       H  0.85901629  0.34527161  0.61299836     0.13500
H1334       H  0.91246027  0.31552139  0.50885442     0.13500
C1335       C  0.90089599  0.44926857  0.35334448    -0.12600
C1336       C  0.88833708  0.47986873  0.33267648     0.09500
C1337       C  0.90531200  0.51467587  0.33854148    -0.12600
C1338       C  0.92423067  0.52132366  0.37149127    -0.12600
C1339       C  0.93165357  0.49198841  0.39626334     0.09500
C1340       C  0.92378661  0.45529872  0.38428279    -0.12600
H1341       H  0.88956600  0.42168969  0.34862312     0.13500
H1342       H  0.89793767  0.53863083  0.32173647     0.13500
H1343       H  0.92869469  0.55013541  0.37898112     0.13500
H1344       H  0.93068955  0.43172155  0.40170824     0.13500
C1345       C  0.19013730  0.30600887  0.43308575    -0.12500
C1346       C  0.19852799  0.30543864  0.40080737    -0.14100
C1347       C  0.03487941  0.27488416  0.48443828    -0.12600
C1348       C  0.06541089  0.27208747  0.45995102     0.09500
C1349       C  0.06057990  0.28658380  0.42376032    -0.12600
C1350       C  0.03740705  0.31744698  0.41938116    -0.12600
C1351       C  0.01528966  0.32937308  0.44962791     0.09500
C1352       C  0.00835585  0.30305017  0.47819243    -0.12600
H1353       H  0.03568906  0.26160348  0.51153817     0.13500
H1354       H  0.08118380  0.28144364  0.40215378     0.13500
H1355       H  0.04239687  0.33503094  0.39543163     0.13500
H1356       H  0.98924617  0.30986421  0.50066638     0.13500
C1357       C  0.27746533  0.24077176  0.42778991    -0.12500
C1358       C  0.27601730  0.24467051  0.39330737    -0.14100
C1359       C  0.08885140  0.65074435  0.50395481    -0.12600
C1360       C  0.12021764  0.64895748  0.52691333     0.09500
C1361       C  0.12901105  0.61590947  0.54562932    -0.12600
C1362       C  0.10875979  0.58377223  0.53828541    -0.12600
C1363       C  0.07881985  0.58487474  0.51323155     0.09500
C1364       C  0.06811828  0.61879504  0.49732358    -0.12600
H1365       H  0.08209124  0.67613264  0.48909817     0.13500
H1366       H  0.15367125  0.61402390  0.56289603     0.13500
H1367       H  0.11746591  0.55767454  0.55069371     0.13500
H1368       H  0.04521611  0.62030901  0.47822136     0.13500
C1369       C  0.68400647  0.01917753  0.48629981    -0.12600
C1370       C  0.65667230  0.01805276  0.45813009     0.09500
C1371       C  0.65941406  0.04478320  0.42963727    -0.12600
C1372       C  0.67887625  0.07787392  0.43610804    -0.12600
C1373       C  0.69648712  0.08384589  0.47066017     0.09500
C1374       C  0.70219472  0.05297702  0.49395720    -0.12600
H1375       H  0.68517731  0.99743535  0.50706782     0.13500
H1376       H  0.64043517  0.04397812  0.40619718     0.13500
H1377       H  0.67547873  0.10042987  0.41637545     0.13500
H1378       H  0.71732840  0.05604663  0.51979511     0.13500
C1379       C  0.37825562  0.10378495  0.43847962    -0.12600
C1380       C  0.40308876  0.09235851  0.46611476     0.09500
C1381       C  0.39555199  0.10203696  0.50361122    -0.12600
C1382       C  0.36598168  0.12588213  0.51283284    -0.12600
C1383       C  0.34329249  0.14043862  0.48466715     0.09500
C1384       C  0.34852682  0.12738013  0.44768185    -0.12600
H1385       H  0.38367356  0.09718604  0.40944418     0.13500
H1386       H  0.41476185  0.09393169  0.52538104     0.13500
H1387       H  0.36277290  0.13511377  0.54145676     0.13500
H1388       H  0.33120562  0.13747510  0.42517323     0.13500
C1389       C  0.36861566  0.93962790  0.45061040    -0.12600
C1390       C  0.38530129  0.94896307  0.48492227     0.09500
C1391       C  0.36740978  0.93782677  0.51793673    -0.12600
C1392       C  0.33757253  0.91355694  0.51689672    -0.12600
C1393       C  0.32639104  0.89765574  0.48289247     0.09500
C1394       C  0.34006301  0.91293207  0.44948579    -0.12600
H1395       H  0.38002619  0.94973066  0.42463629     0.13500
H1396       H  0.37903870  0.94419350  0.54498891     0.13500
H1397       H  0.32680716  0.90370139  0.54336970     0.13500
H1398       H  0.33088035  0.90228972  0.42275510     0.13500
C1399       C  0.48322564  0.77662533  0.44018063    -0.12600
C1400       C  0.51539615  0.77229762  0.41813093     0.09500
C1401       C  0.54950977  0.78612866  0.43147317    -0.12600
C1402       C  0.54986169  0.81087201  0.46144018    -0.12600
C1403       C  0.51635181  0.82069642  0.47915016     0.09500
C1404       C  0.48386093  0.80039949  0.47104716    -0.12600
H1405       H  0.45672832  0.76545588  0.43104339     0.13500
H1406       H  0.57503869  0.78248049  0.41565614     0.13500
H1407       H  0.57539221  0.82576097  0.46751875     0.13500
H1408       H  0.45787442  0.80707555  0.48504448     0.13500
C1409       C  0.67723090  0.91645103  0.52464703    -0.12600
C1410       C  0.69289210  0.89132561  0.55006516     0.09500
C1411       C  0.68570971  0.89669711  0.58845332    -0.12600
C1412       C  0.65501267  0.91802616  0.59957270    -0.12600
C1413       C  0.63289175  0.93484136  0.57232233     0.09500
C1414       C  0.64672000  0.93778991  0.53578595    -0.12600
H1415       H  0.68327003  0.91433984  0.49507351     0.13500
H1416       H  0.69892667  0.87913397  0.60909959     0.13500
H1417       H  0.64505556  0.91589153  0.62806100     0.13500
H1418       H  0.62982142  0.95052200  0.51442033     0.13500
C1419       C  0.89362201  0.66234914  0.45085348    -0.12600
C1420       C  0.88837217  0.69167055  0.47603582     0.09500
C1421       C  0.91804330  0.70267033  0.49896314    -0.12600
C1422       C  0.95012868  0.68037740  0.50076786    -0.12600
C1423       C  0.94954213  0.64477854  0.48430890     0.09500
C1424       C  0.92340900  0.63836955  0.45563858    -0.12600
H1425       H  0.87157099  0.65394439  0.43202661     0.13500
H1426       H  0.91513995  0.72635337  0.51754030     0.13500
H1427       H  0.97247411  0.68822073  0.51941736     0.13500
H1428       H  0.92225587  0.61226852  0.44053018     0.13500
C1429       C  0.48381185  0.93517591  0.67871389    -0.12600
C1430       C  0.45758548  0.90872391  0.66684810     0.09500
C1431       C  0.43228752  0.91851935  0.63888453    -0.12600
C1432       C  0.43679523  0.95200641  0.61936336    -0.12600
C1433       C  0.46656175  0.97658165  0.62773981     0.09500
C1434       C  0.48753610  0.96914448  0.66009530    -0.12600
H1435       H  0.50317119  0.92853222  0.70085998     0.13500
H1436       H  0.41148353  0.89874187  0.62954859     0.13500
H1437       H  0.41921876  0.95628396  0.59543385     0.13500
H1438       H  0.51000962  0.98756828  0.66821975     0.13500
C1439       C  0.12505409  0.46388194  0.62033900    -0.12600
C1440       C  0.11254039  0.46636186  0.65719418     0.09500
C1441       C  0.07762421  0.45206850  0.66737502    -0.12600
C1442       C  0.05372892  0.43875142  0.63961158    -0.12600
C1443       C  0.06548753  0.43916285  0.60221097     0.09500
C1444       C  0.10202174  0.44960903  0.59314516    -0.12600
H1445       H  0.15272742  0.47333143  0.61260878     0.13500
H1446       H  0.06867400  0.45218697  0.69627292     0.13500
H1447       H  0.02559660  0.43068249  0.64684170     0.13500
H1448       H  0.11125031  0.45039471  0.56430207     0.13500
C1449       C  0.65804564  0.52360913  0.05669504    -0.12600
C1450       C  0.62740307  0.54737082  0.06266665     0.09500
C1451       C  0.62738906  0.57117226  0.09369115    -0.12600
C1452       C  0.65383807  0.56682163  0.12129110    -0.12600
C1453       C  0.67942334  0.53725320  0.11922040     0.09500
C1454       C  0.68302774  0.51703594  0.08589870    -0.12600
H1455       H  0.65953533  0.50644760  0.03183327     0.13500
H1456       H  0.60443866  0.59019087  0.09879007     0.13500
H1457       H  0.65091621  0.58347738  0.14640201     0.13500
H1458       H  0.70335849  0.49483750  0.08341741     0.13500
C1459       C  0.44874301  0.64300161  0.05287472    -0.12600
C1460       C  0.47801609  0.65194371  0.02785283     0.09500
C1461       C  0.49791241  0.68508561  0.03451410    -0.12600
C1462       C  0.49505136  0.70298214  0.06919684    -0.12600
C1463       C  0.47025014  0.68968626  0.09643680     0.09500
C1464       C  0.44483932  0.66183400  0.08671806    -0.12600
H1465       H  0.43118079  0.61891810  0.04861710     0.13500
H1466       H  0.51765195  0.69558628  0.01433848     0.13500
H1467       H  0.51385614  0.72553080  0.07579579     0.13500
H1468       H  0.42484052  0.65154739  0.10694347     0.13500
C1469       C  0.44114437  0.56140074  0.86389880    -0.12600
C1470       C  0.47014587  0.53545655  0.86435475     0.09500
C1471       C  0.50238164  0.54154976  0.84287016    -0.12600
C1472       C  0.50552331  0.57380031  0.82122647    -0.12600
C1473       C  0.47627275  0.59980814  0.82086373     0.09500
C1474       C  0.44392238  0.59292925  0.84206796    -0.12600
H1475       H  0.41643811  0.55744972  0.88094520     0.13500
H1476       H  0.52509805  0.52165661  0.84331354     0.13500
H1477       H  0.53076614  0.57860538  0.80529088     0.13500
H1478       H  0.42097818  0.61253616  0.84299415     0.13500
C1479       C  0.32851869  0.50461378  0.93071858    -0.12600
C1480       C  0.32358884  0.46556550  0.93368309     0.09500
C1481       C  0.28782302  0.45111141  0.92812272    -0.12600
C1482       C  0.26020083  0.47408763  0.91254062    -0.12600
C1483       C  0.26985624  0.50996852  0.89917716     0.09500
C1484       C  0.30119558  0.52702040  0.91462853    -0.12600
H1485       H  0.35561359  0.51682100  0.93577913     0.13500
H1486       H  0.28267731  0.42151404  0.93097153     0.13500
H1487       H  0.23485806  0.46092893  0.90279405     0.13500
H1488       H  0.30869695  0.55517809  0.90669084     0.13500
C1489       C  0.47015158  0.27813001  0.93267704    -0.12600
C1490       C  0.44486204  0.28312662  0.90345611     0.09500
C1491       C  0.41009412  0.29896661  0.91160152    -0.12600
C1492       C  0.40427212  0.31676129  0.94576058    -0.12600
C1493       C  0.43376019  0.32046673  0.97183051     0.09500
C1494       C  0.46401645  0.29565422  0.96701127    -0.12600
H1495       H  0.49609687  0.26332462  0.92809866     0.13500
H1496       H  0.38886840  0.30138812  0.89032377     0.13500
H1497       H  0.37821026  0.33150663  0.94903290     0.13500
H1498       H  0.48469381  0.29135688  0.98800105     0.13500
C1499       C  0.50540716  0.13626515  0.60910173    -0.12600
C1500       C  0.52184581  0.17067378  0.61695631     0.09500
C1501       C  0.55089921  0.18431472  0.59439609    -0.12600
C1502       C  0.56269281  0.16402733  0.56335959    -0.12600
C1503       C  0.54594807  0.12978789  0.55554724     0.09500
C1504       C  0.51768260  0.11573523  0.57870913    -0.12600
H1505       H  0.48364563  0.12499171  0.62682601     0.13500
H1506       H  0.56407639  0.21075954  0.60063423     0.13500
H1507       H  0.58386340  0.17533724  0.54497272     0.13500
H1508       H  0.50413539  0.08951506  0.57219447     0.13500
C1509       C  0.60551446  0.41698532  0.90234559    -0.12600
C1510       C  0.62799110  0.44905185  0.90317259     0.09500
C1511       C  0.63010843  0.46975508  0.93624347    -0.12600
C1512       C  0.60669453  0.46112213  0.96631434    -0.12600
C1513       C  0.57884175  0.43369624  0.96255434     0.09500
C1514       C  0.58105370  0.40941749  0.93176607    -0.12600
H1515       H  0.60406606  0.39986711  0.87744621     0.13500
H1516       H  0.64831842  0.49375636  0.93810100     0.13500
H1517       H  0.60684314  0.47956055  0.99000801     0.13500
H1518       H  0.56033357  0.38779925  0.92790809     0.13500
C1519       C  0.85882576  0.56237625  0.66921574    -0.12600
C1520       C  0.86314523  0.53990950  0.70074844     0.09500
C1521       C  0.89884501  0.52842835  0.71149245    -0.12600
C1522       C  0.92952201  0.53685452  0.68867424    -0.12600
C1523       C  0.92386393  0.55345333  0.65350385     0.09500
C1524       C  0.88853754  0.56815044  0.64533163    -0.12600
H1525       H  0.83147021  0.57170130  0.66049412     0.13500
H1526       H  0.90269905  0.51185335  0.73641181     0.13500
H1527       H  0.95692223  0.52764657  0.69702831     0.13500
H1528       H  0.88262273  0.58056891  0.61848275     0.13500
C1529       C  0.29149636  0.40161608  0.17254456    -0.12500
C1530       C  0.29353470  0.43269550  0.16006482    -0.14100
C1531       C  0.31069996  0.55492565  0.04669483    -0.12600
C1532       C  0.29727332  0.51886004  0.05498443     0.09500
C1533       C  0.30967824  0.48914401  0.03291421    -0.12600
C1534       C  0.34321538  0.49303947  0.01379980    -0.12600
C1535       C  0.36277085  0.52669582  0.01457370     0.09500
C1536       C  0.34426370  0.55875934  0.02718996    -0.12600
H1537       H  0.30001981  0.57910964  0.06139699     0.13500
H1538       H  0.29882485  0.46129537  0.03715206     0.13500
H1539       H  0.35778478  0.46850907  0.00532471     0.13500
H1540       H  0.35830919  0.58547626  0.02758289     0.13500
C1541       C  0.24045252  0.39735661  0.27665807    -0.12500
C1542       C  0.23700309  0.43195145  0.27707762    -0.14100
C1543       C  0.09584862  0.52104647  0.30659261    -0.12600
C1544       C  0.12004529  0.49135108  0.29826334     0.09500
C1545       C  0.10938825  0.45508404  0.30891737    -0.12600
C1546       C  0.08092584  0.44988974  0.33474862    -0.12600
C1547       C  0.06125609  0.48062655  0.34882376     0.09500
C1548       C  0.06548102  0.51529289  0.33075264    -0.12600
H1549       H  0.10243010  0.54911610  0.29769211     0.13500
H1550       H  0.12615349  0.43102479  0.30161086     0.13500
H1551       H  0.07794233  0.42256869  0.34719046     0.13500
H1552       H  0.04951759  0.53920830  0.34012939     0.13500
C1553       C  0.38987491  0.27829684  0.23919384    -0.12500
C1554       C  0.42459263  0.28082975  0.23836768    -0.14100
C1555       C  0.47522501  0.36046476  0.13067852    -0.12600
C1556       C  0.49896488  0.36230614  0.16170512     0.09500
C1557       C  0.52127724  0.39387655  0.16697702    -0.12600
C1558       C  0.51941295  0.42354102  0.14194127    -0.12600
C1559       C  0.49625353  0.42159597  0.11037537     0.09500
C1560       C  0.47429843  0.38963951  0.10489404    -0.12600
H1561       H  0.45765474  0.33631543  0.12626244     0.13500
H1562       H  0.53927503  0.39607591  0.19109338     0.13500
H1563       H  0.53619025  0.44809121  0.14713425     0.13500
H1564       H  0.45632383  0.38739175  0.08078814     0.13500
C1565       C  0.42536364  0.16698575  0.29744211    -0.12500
C1566       C  0.39440667  0.17883398  0.29352720    -0.14100
C1567       C  0.54482975  0.01768493  0.33245874    -0.12600
C1568       C  0.51280148  0.99944146  0.34651864     0.09500
C1569       C  0.47950986  0.00395385  0.32598346    -0.12600
C1570       C  0.47567880  0.03411106  0.30152689    -0.12600
C1571       C  0.50609758  0.05781820  0.29530533     0.09500
C1572       C  0.54157979  0.04542425  0.30576387    -0.12600
H1573       H  0.57176707  0.01564605  0.34547802     0.13500
H1574       H  0.45493500  0.98793647  0.33244833     0.13500
H1575       H  0.44815759  0.04145320  0.29161800     0.13500
H1576       H  0.56625406  0.06157721  0.29918526     0.13500
C1577       C  0.21818984  0.89792049  0.26521252    -0.12500
C1578       C  0.21491475  0.93238226  0.26883765    -0.14100
C1579       C  0.34038999  0.93719810  0.21201984    -0.12500
C1580       C  0.33044833  0.90548267  0.21522741    -0.14100
C1581       C  0.11109317  0.74799860  0.22027351    -0.12500
C1582       C  0.07750905  0.74355168  0.21755348    -0.14100
C1583       C  0.05709714  0.79565796  0.30825066    -0.12500
C1584       C  0.09111958  0.79491247  0.30641054    -0.14100
C1585       C  0.27577726  0.80175784  0.08475609    -0.12500
C1586       C  0.26805641  0.79746750  0.11729769    -0.14100
C1587       C  0.21011233  0.70182334  0.08939299    -0.12500
C1588       C  0.20994300  0.70043731  0.05514465    -0.14100
C1589       C  0.41884447  0.70314153  0.22162826    -0.12500
C1590       C  0.38678521  0.70607402  0.23324896    -0.14100
C1591       C  0.44137171  0.78335551  0.30708652    -0.12500
C1592       C  0.40989673  0.79152218  0.29780523    -0.14100
C1593       C  0.23222655  0.61035452  0.28353230    -0.12500
C1594       C  0.22730831  0.57581627  0.28294337    -0.14100
C1595       C  0.28801661  0.56590809  0.17887017    -0.12500
C1596       C  0.28554837  0.59748957  0.18931783    -0.14100
C1597       C  0.28824445  0.76948249  0.39110302    -0.12500
C1598       C  0.29028715  0.78039228  0.42338415    -0.14100
C1599       C  0.20088285  0.71680136  0.41067981    -0.12500
C1600       C  0.20118516  0.71350695  0.44443380    -0.14100
C1601       C  0.92476785  0.26749155  0.23253430    -0.12500
C1602       C  0.89047831  0.26267169  0.23612766    -0.14100
C1603       C  0.89943329  0.20998460  0.34717374    -0.12500
C1604       C  0.93082924  0.20503126  0.35736751    -0.14100
C1605       C  0.79329651  0.07770303  0.29626617    -0.12500
C1606       C  0.78969597  0.11039198  0.28816210    -0.14100
C1607       C  0.69157753  0.08405689  0.23062070    -0.12500
C1608       C  0.68806556  0.05010526  0.22880491    -0.14100
C1609       C  0.74044197  0.21149409  0.13173830    -0.12500
C1610       C  0.73480748  0.20860151  0.09836973    -0.14100
C1611       C  0.79097265  0.30240891  0.07533274    -0.12500
C1612       C  0.78834351  0.30066069  0.10942326    -0.14100
C1613       C  0.56906535  0.28358171  0.24682179    -0.12500
C1614       C  0.60342847  0.28024415  0.25182349    -0.14100
C1615       C  0.59090582  0.18774697  0.30836744    -0.12500
C1616       C  0.55871643  0.17914405  0.30933229    -0.14100
C1617       C  0.76959192  0.41813814  0.30887831    -0.12500
C1618       C  0.75982663  0.38558508  0.30765137    -0.14100
C1619       C  0.70657981  0.40542768  0.21212004    -0.12500
C1620       C  0.70384642  0.43928065  0.20962701    -0.14100
C1621       C  0.70179930  0.22783533  0.40793457    -0.12500
C1622       C  0.70026380  0.21455567  0.43947204    -0.14100
C1623       C  0.79331421  0.29050464  0.43059634    -0.12500
C1624       C  0.79494641  0.29273081  0.46430952    -0.14100
C1625       C  0.05861591  0.79170963  0.72757748    -0.12500
C1626       C  0.09192450  0.79194062  0.73421216    -0.14100
C1627       C  0.03462296  0.70958132  0.78709197    -0.12500
C1628       C  0.06870453  0.71119184  0.78650412    -0.14100
C1629       C  0.36928091  0.77957178  0.71268790    -0.12500
C1630       C  0.40072688  0.79060836  0.70524615    -0.14100
C1631       C  0.41632141  0.71333224  0.79151472    -0.12500
C1632       C  0.38470882  0.72224912  0.79940693    -0.14100
C1633       C  0.19073344  0.75156280  0.89132092    -0.12500
C1634       C  0.19616129  0.74396331  0.92396792    -0.14100
C1635       C  0.27617606  0.80094713  0.91355964    -0.12500
C1636       C  0.27880710  0.80381206  0.94710704    -0.14100
C1637       C  0.24617076  0.89868964  0.79434783    -0.12500
C1638       C  0.25710872  0.93058349  0.79887721    -0.14100
C1639       C  0.19220224  0.91846152  0.70502868    -0.12500
C1640       C  0.18634697  0.95177317  0.70950674    -0.14100
C1641       C  0.26956005  0.62226763  0.77640487    -0.12500
C1642       C  0.27170563  0.58991928  0.78692316    -0.14100
C1643       C  0.18458550  0.59873447  0.71446012    -0.12500
C1644       C  0.18671233  0.56488809  0.70993732    -0.14100
C1645       C  0.21981071  0.71791159  0.58228725    -0.12500
C1646       C  0.22531916  0.72162039  0.61550817    -0.14100
C1647       C  0.27527551  0.80375088  0.59499640    -0.12500
C1648       C  0.28027612  0.80145041  0.56134885    -0.14100
C1649       C  0.25799544  0.22992443  0.92892999    -0.12500
C1650       C  0.25345139  0.23148781  0.89440484    -0.14100
C1651       C  0.21125520  0.34558531  0.90053322    -0.12500
C1652       C  0.20971914  0.35683195  0.93213215    -0.14100
C1653       C  0.20115488  0.12150447  0.74600425    -0.12500
C1654       C  0.19783645  0.08794284  0.74162742    -0.14100
C1655       C  0.27564856  0.06824873  0.80109268    -0.12500
C1656       C  0.27724250  0.10182916  0.79697910    -0.14100
C1657       C  0.07134266  0.29203124  0.79735655    -0.12500
C1658       C  0.10410623  0.28385542  0.79321332    -0.14100
C1659       C  0.04038741  0.22399455  0.69494505    -0.12500
C1660       C  0.07461062  0.22430613  0.69730886    -0.14100
C1661       C  0.38097930  0.28858826  0.76069359    -0.12500
C1662       C  0.41277735  0.28745630  0.77284503    -0.14100
C1663       C  0.39594430  0.20057846  0.71450748    -0.12500
C1664       C  0.42954900  0.20348313  0.70981309    -0.14100
C1665       C  0.22469622  0.42954575  0.70885188    -0.12500
C1666       C  0.23244470  0.39634862  0.70768862    -0.14100
C1667       C  0.28995498  0.41855135  0.78269499    -0.12500
C1668       C  0.28877112  0.45240345  0.78338207    -0.14100
C1669       C  0.27993012  0.22897008  0.57155180    -0.12500
C1670       C  0.27520794  0.23422481  0.60590456    -0.14100
C1671       C  0.16501991  0.29255109  0.59382473    -0.12500
C1672       C  0.15445223  0.29354969  0.56205858    -0.14100
C1673       C  0.71845985  0.07203570  0.81066777    -0.12500
C1674       C  0.72589699  0.10517074  0.80881330    -0.14100
C1675       C  0.77866199  0.04602742  0.72300777    -0.12500
C1676       C  0.77925319  0.08014414  0.72376994    -0.14100
C1677       C  0.68831855  0.41355283  0.78884673    -0.12500
C1678       C  0.69621833  0.38140699  0.78030594    -0.14100
C1679       C  0.78504026  0.40003810  0.72219898    -0.12500
C1680       C  0.78298850  0.43384331  0.72024200    -0.14100
C1681       C  0.78215719  0.26573848  0.90549723    -0.12500
C1682       C  0.78637339  0.27721604  0.93745120    -0.14100
C1683       C  0.70066789  0.20196197  0.96279646    -0.12500
C1684       C  0.69612451  0.20797694  0.92957582    -0.14100
C1685       C  0.87803704  0.20955690  0.75334486    -0.12500
C1686       C  0.90997308  0.21464979  0.74266324    -0.14100
C1687       C  0.93219380  0.29390469  0.80131654    -0.12500
C1688       C  0.89833878  0.29292315  0.79957321    -0.14100
C1689       C  0.59956954  0.22831946  0.73442261    -0.12500
C1690       C  0.56631960  0.22591102  0.72793001    -0.14100
C1691       C  0.54615249  0.28521925  0.81413571    -0.12500
C1692       C  0.58007553  0.28321424  0.81682003    -0.14100
C1693       C  0.75163968  0.27629361  0.62936749    -0.12500
C1694       C  0.76308548  0.27960995  0.59771964    -0.14100
C1695       C  0.70024512  0.17734217  0.60832406    -0.12500
C1696       C  0.69851171  0.17461269  0.57403559    -0.14100
C1697       C  0.78754914  0.73179563  0.11837452    -0.12500
C1698       C  0.78924043  0.72645082  0.08476392    -0.14100
C1699       C  0.70224317  0.78227178  0.06030315    -0.12500
C1700       C  0.70395298  0.78236302  0.09425414    -0.14100
C1701       C  0.75816305  0.70933227  0.39515147    -0.12500
C1702       C  0.76578463  0.70615576  0.42803506    -0.14100
C1703       C  0.70305184  0.80240027  0.41354761    -0.12500
C1704       C  0.69937445  0.80248238  0.44745896    -0.14100
C1705       C  0.88719078  0.78615146  0.27568762    -0.12500
C1706       C  0.91962671  0.78824908  0.28578832    -0.14100
C1707       C  0.94284139  0.70520794  0.21327672    -0.12500
C1708       C  0.90992130  0.70046368  0.22114250    -0.14100
C1709       C  0.72663420  0.91703504  0.21876243    -0.12500
C1710       C  0.73614340  0.88452666  0.21631351    -0.14100
C1711       C  0.78640198  0.90579311  0.29985163    -0.12500
C1712       C  0.79070636  0.93929903  0.29945857    -0.14100
C1713       C  0.71407482  0.60818230  0.24668427    -0.12500
C1714       C  0.71290102  0.57489559  0.24019593    -0.14100
C1715       C  0.78965996  0.58999541  0.29864604    -0.12500
C1716       C  0.78636555  0.55634768  0.30181680    -0.14100
C1717       C  0.61001298  0.76023533  0.29162163    -0.12500
C1718       C  0.57716777  0.76063418  0.29988488    -0.14100
C1719       C  0.59066818  0.70596071  0.19999319    -0.12500
C1720       C  0.55672244  0.70325695  0.19817152    -0.14100
C1721       C  0.77265757  0.87329479  0.73040740    -0.12500
C1722       C  0.77156387  0.90623958  0.72095939    -0.14100
C1723       C  0.69085931  0.90289003  0.78189179    -0.12500
C1724       C  0.69504827  0.93592496  0.78868079    -0.14100
C1725       C  0.86208834  0.71118099  0.79320201    -0.12500
C1726       C  0.89495781  0.70139402  0.79106730    -0.14100
C1727       C  0.88941802  0.75793316  0.70908123    -0.12500
C1728       C  0.92267621  0.76418705  0.71141501    -0.14100
C1729       C  0.70628910  0.78309984  0.88873954    -0.12500
C1730       C  0.69682050  0.78219296  0.92153067    -0.14100
C1731       C  0.75338005  0.70086355  0.91644240    -0.12500
C1732       C  0.76161858  0.70655303  0.94894091    -0.14100
C1733       C  0.55186234  0.69990287  0.76937161    -0.12500
C1734       C  0.58468225  0.70698004  0.76514591    -0.14100
C1735       C  0.57234637  0.80266754  0.70320692    -0.12500
C1736       C  0.53884338  0.80628315  0.69826108    -0.14100
C1737       C  0.72721971  0.59692734  0.72487331    -0.12500
C1738       C  0.73667624  0.56442713  0.72561012    -0.14100
C1739       C  0.67153076  0.58332684  0.81647275    -0.12500
C1740       C  0.66772400  0.54927446  0.81866439    -0.14100
C1741       C  0.69241857  0.75050232  0.61251167    -0.12500
C1742       C  0.69310680  0.76189915  0.58048922    -0.14100
C1743       C  0.78646946  0.68648814  0.56384495    -0.12500
C1744       C  0.78261918  0.68569947  0.59765342    -0.14100
loop_ 
_geom_bond_atom_site_label_1 
_geom_bond_atom_site_label_2 
_geom_bond_distance 
_geom_bond_site_symmetry_2 
_ccdc_geom_bond_type 
O1           C28   1.285       .  A
O1          Mn27   2.148       .  S
C2           O35   1.284       .  A
C2           O32   1.266       .  A
C2         C1744   1.453       .  S
O3          Mn10   2.169       .  S
O3          Mn21   2.134       .  S
O3          Mn25   2.179       .  S
O3          Mn27   2.116       .  S
O4           C14   1.267       .  A
O4          Mn38   2.088       .  S
O5           C28   1.266       .  A
O5          Mn21   2.087       .  S
O6           C33   1.263       .  A
O6          Mn25   2.144       .  S
O7          Mn38   1.970       .  S
O7          Mn27   1.985       .  S
O7           C23   1.221       .  S
C8           O11   1.265       .  A
C8         C1721   1.475       .  S
C8           O34   1.219       .  S
O9          Mn29   2.132       .  S
O9          Mn10   2.160       .  S
O9          Mn43   2.120       .  S
O9          Mn25   2.176       .  S
Mn10         O39   2.136       .  S
Mn10         O15   2.109       .  S
Mn10         O42   2.118       .  S
Mn10         O16   2.156       .  S
O11         Mn25   2.163       .  S
O12          C14   1.285       .  A
O12         Mn19   2.142       .  S
C13          O39   1.259       .  A
C13        C1741   1.457       .  S
C13          O26   1.220       .  S
C14        C1727   1.454       .  S
O15          C40   1.255       .  A
O16         Mn19   2.112       .  S
O16         Mn38   2.132       .  S
O16         Mn25   2.166       .  S
O17         Mn21   1.987       .  S
O17         Mn43   1.990       .  S
O17          C40   1.221       .  S
C18          O44   1.266       .  A
C18          O20   1.284       .  A
C18        C1723   1.456       .  S
Mn19         O32   2.079       .  S
Mn19         O34   1.983       .  S
Mn19         O26   1.981       .  S
O20         Mn43   2.148       .  S
Mn21         O37   2.168       .  S
Mn21         O31   1.975       .  S
O22          C24   1.268       .  A
O22         Mn27   2.098       .  S
C23          O41   1.267       .  A
C23        C1725   1.478       .  S
C24          O37   1.288       .  A
C24        C1739   1.476       .  S
Mn25         O41   2.163       .  S
O26         Mn29   1.979       .  S
Mn27         O45   1.981       .  S
C28        C1731   1.457       .  S
Mn29         O36   2.146       .  S
Mn29         O44   2.087       .  S
Mn29         O34   1.970       .  S
C30          O36   1.283       .  A
C30          O46   1.269       .  A
C30        C1735   1.461       .  S
O31         Mn43   1.977       .  S
O31          C33   1.221       .  S
C33        C1729   1.461       .  S
O35         Mn38   2.145       .  S
Mn38         O45   1.991       .  S
C40        C1734   1.449       .  S
O42          C47   1.256       .  A
Mn43         O46   2.095       .  S
O45          C47   1.222       .  S
C47        C1737   1.451       .  S
O48          C75   1.283       .  A
O48         Mn74   2.142       .  S
C49          O82   1.284       .  A
C49          O79   1.270       .  A
C49        C1719   1.463       .  S
O50         Mn57   2.155       .  S
O50         Mn68   2.121       .  S
O50         Mn72   2.153       .  S
O50         Mn74   2.120       .  S
O51          C61   1.269       .  A
O51         Mn85   2.095       .  S
O52          C75   1.273       .  A
O52         Mn68   2.116       .  S
O53          C80   1.260       .  A
O53         Mn72   2.134       .  S
O54         Mn85   1.970       .  S
O54         Mn74   1.987       .  S
O54          C70   1.223       .  S
C55          O58   1.256       .  A
C55        C1710   1.456       .  S
C55          O81   1.225       .  S
O56         Mn76   2.130       .  S
O56         Mn57   2.148       .  S
O56         Mn90   2.121       .  S
O56         Mn72   2.160       .  S
Mn57         O86   2.101       .  S
Mn57         O62   2.112       .  S
Mn57         O89   2.105       .  S
Mn57         O63   2.154       .  S
O58         Mn72   2.120       .  S
O59          C61   1.280       .  A
O59         Mn66   2.137       .  S
C60          O86   1.254       .  A
C60        C1717   1.450       .  S
C60          O73   1.223       .  S
C61        C1700   1.455       .  S
O62          C87   1.254       .  A
O63         Mn66   2.124       .  S
O63         Mn85   2.125       .  S
O63         Mn72   2.168       .  S
O64         Mn68   1.991       .  S
O64         Mn90   1.977       .  S
O64          C87   1.224       .  S
C65          O91   1.266       .  A
C65          O67   1.280       .  A
C65        C1711   1.444       .  S
Mn66         O79   2.099       .  S
Mn66         O81   1.984       .  S
Mn66         O73   1.980       .  S
O67         Mn90   2.130       .  S
Mn68         O84   2.137       .  S
Mn68         O78   1.977       .  S
O69          C71   1.268       .  A
O69         Mn74   2.091       .  S
C70          O88   1.258       .  A
C70        C1697   1.459       .  S
C71          O84   1.280       .  A
C71        C1715   1.455       .  S
Mn72         O88   2.122       .  S
O73         Mn76   1.989       .  S
Mn74         O92   1.985       .  S
C75        C1708   1.467       .  S
Mn76         O83   2.142       .  S
Mn76         O91   2.078       .  S
Mn76         O81   1.976       .  S
C77          O83   1.282       .  A
C77          O93   1.270       .  A
C77        C1703   1.460       .  S
O78         Mn90   1.991       .  S
O78          C80   1.224       .  S
C80        C1705   1.463       .  S
O82         Mn85   2.147       .  S
Mn85         O92   2.001       .  S
C87        C1701   1.454       .  S
O89          C94   1.253       .  A
Mn90         O93   2.100       .  S
O92          C94   1.227       .  S
C94        C1713   1.455       .  S
O95         C122   1.283       .  A
O95        Mn121   2.144       .  S
C96         O129   1.289       .  A
C96         O126   1.270       .  A
C96        C1695   1.480       .  S
O97        Mn104   2.153       .  S
O97        Mn115   2.131       .  S
O97        Mn119   2.161       .  S
O97        Mn121   2.123       .  S
O98         C108   1.271       .  A
O98        Mn132   2.100       .  S
O99         C122   1.269       .  A
O99        Mn115   2.098       .  S
O100        C127   1.262       .  A
O100       Mn119   2.144       .  S
O101       Mn132   1.971       .  S
O101       Mn121   1.982       .  S
O101        C117   1.222       .  S
C102        O105   1.259       .  A
C102       C1685   1.460       .  S
C102        O128   1.223       .  S
O103       Mn123   2.120       .  S
O103       Mn104   2.152       .  S
O103       Mn137   2.119       .  S
O103       Mn119   2.161       .  S
Mn104       O133   2.115       .  S
Mn104       O109   2.135       .  S
Mn104       O136   2.110       .  S
Mn104       O110   2.172       .  S
O105       Mn119   2.131       .  S
O106        C108   1.284       .  A
O106       Mn113   2.150       .  S
C107        O133   1.255       .  A
C107       C1693   1.444       .  S
C107        O120   1.219       .  S
C108       C1676   1.465       .  S
O109        C134   1.260       .  A
O110       Mn113   2.124       .  S
O110       Mn132   2.128       .  S
O110       Mn119   2.176       .  S
O111       Mn115   1.994       .  S
O111       Mn137   1.987       .  S
O111        C134   1.225       .  S
C112        O138   1.266       .  A
C112        O114   1.283       .  A
C112       C1688   1.452       .  S
Mn113       O126   2.106       .  S
Mn113       O128   1.992       .  S
Mn113       O120   1.972       .  S
O114       Mn137   2.143       .  S
Mn115       O131   2.147       .  S
Mn115       O125   1.980       .  S
O116        C118   1.270       .  A
O116       Mn121   2.098       .  S
C117        O135   1.259       .  A
C117       C1674   1.459       .  S
C118        O131   1.283       .  A
C118       C1692   1.463       .  S
Mn119       O135   2.130       .  S
O120       Mn123   1.974       .  S
Mn121       O139   1.989       .  S
C122       C1684   1.461       .  S
Mn123       O130   2.137       .  S
Mn123       O138   2.081       .  S
Mn123       O128   1.976       .  S
C124        O130   1.281       .  A
C124        O140   1.267       .  A
C124       C1679   1.451       .  S
O125       Mn137   1.983       .  S
O125        C127   1.223       .  S
C127       C1681   1.468       .  S
O129       Mn132   2.171       .  S
Mn132       O139   2.013       .  S
C134       C1678   1.469       .  S
O136        C141   1.256       .  A
Mn137       O140   2.087       .  S
O139        C141   1.225       .  S
C141       C1689   1.459       .  S
O142        C169   1.270       .  A
O142       Mn168   2.087       .  S
C143        O176   1.270       .  A
C143        O173   1.269       .  A
C143       C1671   1.426       .  S
O144       Mn151   2.177       .  S
O144       Mn162   2.127       .  S
O144       Mn166   2.161       .  S
O144       Mn168   2.129       .  S
O145        C155   1.272       .  A
O145       Mn179   2.104       .  S
O146        C169   1.267       .  A
O146       Mn162   2.084       .  S
O147        C174   1.266       .  A
O147       Mn166   2.168       .  S
O148       Mn179   1.961       .  S
O148       Mn168   1.984       .  S
O148        C164   1.223       .  S
C149        O152   1.262       .  A
C149       C1653   1.459       .  S
C149        O175   1.226       .  S
O150       Mn170   2.127       .  S
O150       Mn151   2.154       .  S
O150       Mn184   2.132       .  S
O150       Mn166   2.147       .  S
Mn151       O180   2.177       .  S
Mn151       O156   2.150       .  S
Mn151       O183   2.133       .  S
Mn151       O157   2.176       .  S
O152       Mn166   2.124       .  S
O153        C155   1.289       .  A
O153       Mn160   2.167       .  S
C154        O180   1.268       .  A
C154       C1670   1.520       .  S
C154        O167   1.235       .  S
C155       C1660   1.475       .  S
O156        C181   1.266       .  A
O157       Mn160   2.137       .  S
O157       Mn179   2.138       .  S
O157       Mn166   2.178       .  S
O158       Mn162   1.976       .  S
O158       Mn184   1.966       .  S
O158        C181   1.223       .  S
C159        O185   1.272       .  A
C159        O161   1.281       .  A
C159       C1656   1.450       .  S
Mn160       O173   2.086       .  S
Mn160       O175   2.003       .  S
Mn160       O167   2.010       .  S
O161       Mn184   2.126       .  S
Mn162       O178   2.139       .  S
Mn162       O172   1.999       .  S
O163        C165   1.268       .  A
O163       Mn168   2.083       .  S
C164        O182   1.256       .  A
C164       C1658   1.459       .  S
C165        O178   1.282       .  A
C165       C1667   1.449       .  S
Mn166       O182   2.121       .  S
O167       Mn170   2.029       .  S
Mn168       O186   1.946       .  S
C169       C1651   1.428       .  S
Mn170       O177   2.144       .  S
Mn170       O185   2.104       .  S
Mn170       O175   1.974       .  S
C171        O177   1.285       .  A
C171        O187   1.269       .  A
C171       C1663   1.459       .  S
O172       Mn184   2.024       .  S
O172        C174   1.233       .  S
C174       C1650   1.510       .  S
O176       Mn179   2.086       .  S
Mn179       O186   1.987       .  S
C181       C1661   1.464       .  S
O183        C188   1.260       .  A
Mn184       O187   2.097       .  S
O186        C188   1.224       .  S
C188       C1666   1.465       .  S
O189        C216   1.280       .  A
O189       Mn215   2.130       .  S
C190        O223   1.282       .  A
C190        O220   1.267       .  A
C190       C1647   1.459       .  S
O191       Mn198   2.149       .  S
O191       Mn209   2.115       .  S
O191       Mn213   2.156       .  S
O191       Mn215   2.123       .  S
O192        C202   1.268       .  A
O192       Mn226   2.093       .  S
O193        C216   1.265       .  A
O193       Mn209   2.073       .  S
O194        C221   1.256       .  A
O194       Mn213   2.119       .  S
O195       Mn226   1.979       .  S
O195       Mn215   1.975       .  S
O195        C211   1.220       .  S
C196        O199   1.258       .  A
C196       C1626   1.458       .  S
C196        O222   1.221       .  S
O197       Mn217   2.123       .  S
O197       Mn198   2.166       .  S
O197       Mn231   2.120       .  S
O197       Mn213   2.167       .  S
Mn198       O227   2.109       .  S
Mn198       O203   2.149       .  S
Mn198       O230   2.142       .  S
Mn198       O204   2.169       .  S
O199       Mn213   2.125       .  S
O200        C202   1.285       .  A
O200       Mn207   2.150       .  S
C201        O227   1.256       .  A
C201       C1646   1.451       .  S
C201        O214   1.225       .  S
C202       C1639   1.462       .  S
O203        C228   1.262       .  A
O204       Mn207   2.118       .  S
O204       Mn226   2.123       .  S
O204       Mn213   2.155       .  S
O205       Mn209   1.966       .  S
O205       Mn231   1.966       .  S
O205        C228   1.218       .  S
C206        O232   1.272       .  A
C206        O208   1.282       .  A
C206       C1628   1.466       .  S
Mn207       O220   2.092       .  S
Mn207       O222   1.987       .  S
Mn207       O214   1.982       .  S
O208       Mn231   2.144       .  S
Mn209       O225   2.128       .  S
Mn209       O219   1.982       .  S
O210        C212   1.264       .  A
O210       Mn215   2.077       .  S
C211        O229   1.260       .  A
C211       C1637   1.459       .  S
C212        O225   1.280       .  A
C212       C1632   1.442       .  S
Mn213       O229   2.137       .  S
O214       Mn217   1.998       .  S
Mn215       O233   1.985       .  S
C216       C1635   1.441       .  S
Mn217       O224   2.147       .  S
Mn217       O232   2.108       .  S
Mn217       O222   1.968       .  S
C218        O224   1.284       .  A
C218        O234   1.273       .  A
C218       C1643   1.469       .  S
O219       Mn231   2.002       .  S
O219        C221   1.225       .  S
C221       C1633   1.456       .  S
O223       Mn226   2.144       .  S
Mn226       O233   1.977       .  S
C228       C1641   1.463       .  S
O230        C235   1.261       .  A
Mn231       O234   2.113       .  S
O233        C235   1.222       .  S
C235       C1629   1.466       .  S
O236        C263   1.268       .  A
O236       Mn262   2.081       .  S
C237        O270   1.267       .  A
C237        O267   1.271       .  A
C237       C1603   1.423       .  S
O238       Mn245   2.176       .  S
O238       Mn256   2.134       .  S
O238       Mn260   2.170       .  S
O238       Mn262   2.132       .  S
O239        C249   1.267       .  A
O239       Mn273   2.079       .  S
O240        C263   1.267       .  A
O240       Mn256   2.077       .  S
O241        C268   1.269       .  A
O241       Mn260   2.175       .  S
O242       Mn273   1.938       .  S
O242       Mn262   1.962       .  S
O242        C258   1.218       .  S
C243        O246   1.264       .  A
C243       C1618   1.459       .  S
C243        O269   1.225       .  S
O244       Mn264   2.137       .  S
O244       Mn245   2.162       .  S
O244       Mn278   2.142       .  S
O244       Mn260   2.175       .  S
Mn245       O274   2.166       .  S
Mn245       O250   2.113       .  S
Mn245       O277   2.120       .  S
Mn245       O251   2.155       .  S
O246       Mn260   2.137       .  S
O247        C249   1.280       .  A
O247       Mn254   2.130       .  S
C248        O274   1.264       .  A
C248       C1602   1.508       .  S
C248        O261   1.231       .  S
C249       C1623   1.443       .  S
O250        C275   1.259       .  A
O251       Mn254   2.132       .  S
O251       Mn273   2.133       .  S
O251       Mn260   2.179       .  S
O252       Mn256   1.997       .  S
O252       Mn278   1.974       .  S
O252        C275   1.227       .  S
C253        O279   1.271       .  A
C253        O255   1.284       .  A
C253       C1619   1.460       .  S
Mn254       O267   2.093       .  S
Mn254       O269   1.979       .  S
Mn254       O261   2.000       .  S
O255       Mn278   2.141       .  S
Mn256       O272   2.152       .  S
Mn256       O266   1.990       .  S
O257        C259   1.270       .  A
O257       Mn262   2.100       .  S
C258        O276   1.263       .  A
C258       C1621   1.472       .  S
C259        O272   1.285       .  A
C259       C1607   1.467       .  S
Mn260       O276   2.162       .  S
O261       Mn264   2.032       .  S
Mn262       O280   1.959       .  S
C263       C1615   1.419       .  S
Mn264       O271   2.157       .  S
Mn264       O279   2.101       .  S
Mn264       O269   1.972       .  S
C265        O271   1.287       .  A
C265        O281   1.270       .  A
C265       C1612   1.468       .  S
O266       Mn278   2.017       .  S
O266        C268   1.233       .  S
C268       C1614   1.514       .  S
O270       Mn273   2.072       .  S
Mn273       O280   1.982       .  S
C275       C1609   1.456       .  S
O277        C282   1.257       .  A
Mn278       O281   2.099       .  S
O280        C282   1.220       .  S
C282       C1606   1.451       .  S
O283        C310   1.288       .  A
O283       Mn309   2.163       .  S
C284        O317   1.284       .  A
C284        O314   1.268       .  A
C284       C1599   1.449       .  S
O285       Mn292   2.174       .  S
O285       Mn303   2.131       .  S
O285       Mn307   2.171       .  S
O285       Mn309   2.134       .  S
O286        C296   1.270       .  A
O286       Mn320   2.096       .  S
O287        C310   1.269       .  A
O287       Mn303   2.093       .  S
O288        C315   1.253       .  A
O288       Mn307   2.096       .  S
O289       Mn320   1.977       .  S
O289       Mn309   2.003       .  S
O289        C305   1.226       .  S
C290        O293   1.262       .  A
C290       C1577   1.507       .  S
C290        O316   1.232       .  S
O291       Mn311   2.128       .  S
O291       Mn292   2.179       .  S
O291       Mn325   2.136       .  S
O291       Mn307   2.163       .  S
Mn292       O321   2.146       .  S
Mn292       O297   2.152       .  S
Mn292       O324   2.176       .  S
Mn292       O298   2.163       .  S
O293       Mn307   2.156       .  S
O294        C296   1.286       .  A
O294       Mn301   2.148       .  S
C295        O321   1.267       .  A
C295       C1597   1.463       .  S
C295        O308   1.225       .  S
C296       C1584   1.460       .  S
O297        C322   1.262       .  A
O298       Mn301   2.133       .  S
O298       Mn320   2.130       .  S
O298       Mn307   2.143       .  S
O299       Mn303   1.964       .  S
O299       Mn325   1.942       .  S
O299        C322   1.220       .  S
C300        O326   1.268       .  A
C300        O302   1.266       .  A
C300       C1580   1.421       .  S
Mn301       O314   2.088       .  S
Mn301       O316   2.034       .  S
Mn301       O308   1.968       .  S
O302       Mn325   2.074       .  S
Mn303       O319   2.080       .  S
Mn303       O313   1.959       .  S
O304        C306   1.266       .  A
O304       Mn309   2.075       .  S
C305        O323   1.260       .  A
C305       C1581   1.460       .  S
C306        O319   1.268       .  A
C306       C1596   1.418       .  S
Mn307       O323   2.120       .  S
O308       Mn311   1.971       .  S
Mn309       O327   1.987       .  S
C310       C1587   1.470       .  S
Mn311       O318   2.130       .  S
Mn311       O326   2.084       .  S
Mn311       O316   2.003       .  S
C312        O318   1.281       .  A
C312        O328   1.268       .  A
C312       C1592   1.448       .  S
O313       Mn325   1.978       .  S
O313        C315   1.222       .  S
C315       C1586   1.438       .  S
O317       Mn320   2.134       .  S
Mn320       O327   2.015       .  S
C322       C1590   1.469       .  S
O324        C329   1.269       .  A
Mn325       O328   2.089       .  S
O327        C329   1.232       .  S
C329       C1593   1.513       .  S
C330       C1616   1.419       .  S
C330        N331   1.347       .  A
C330        N335   1.351       .  A
N331        C332   1.353       .  A
C332        N333   1.359       .  A
C332       C1571   1.478       .  S
N333        C334   1.361       .  A
C334       C1565   1.423       .  S
C334        N335   1.356       .  A
C336       C1613   1.508       .  S
C336        N337   1.357       .  A
C336        N341   1.400       .  A
N337        C338   1.356       .  A
C338        N339   1.351       .  A
C338       C1556   1.469       .  S
N339        C340   1.351       .  A
C340       C1554   1.501       .  S
C340        N341   1.400       .  A
C342       C1542   1.496       .  S
C342        N343   1.395       .  A
C342        N347   1.343       .  A
N343        C344   1.399       .  A
C344       C1594   1.510       .  S
C344        N345   1.366       .  A
N345        C346   1.363       .  A
C346        N347   1.349       .  A
C346       C1544   1.485       .  S
C348       C1595   1.417       .  S
C348        N349   1.352       .  A
C348        N353   1.348       .  A
N349        C350   1.356       .  A
C350       C1530   1.433       .  S
C350        N351   1.361       .  A
N351        C352   1.364       .  A
C352        N353   1.351       .  A
C352       C1532   1.480       .  S
C354       C1680   1.453       .  S
C354        N355   1.374       .  A
C354        N359   1.359       .  A
N355        C356   1.370       .  A
C356       C1738   1.443       .  S
C356        N357   1.346       .  A
N357        C358   1.346       .  A
C358        N359   1.356       .  A
C358       C1520   1.460       .  S
C360       C1740   1.479       .  S
C360        N361   1.382       .  A
C360        N365   1.363       .  A
N361        C362   1.379       .  A
C362       C1677   1.462       .  S
C362        N363   1.348       .  A
N363        C364   1.349       .  A
C364        N365   1.362       .  A
C364       C1510   1.476       .  S
C366       C1664   1.458       .  S
C366        N367   1.380       .  A
C366        N371   1.353       .  A
N367        C368   1.378       .  A
C368       C1690   1.449       .  S
C368        N369   1.343       .  A
N369        C370   1.342       .  A
C370        N371   1.352       .  A
C370       C1500   1.449       .  S
C372       C1662   1.461       .  S
C372        N373   1.354       .  A
C372        N377   1.376       .  A
N373        C374   1.353       .  A
C374        N375   1.355       .  A
C374       C1490   1.477       .  S
N375        C376   1.355       .  A
C376       C1691   1.462       .  S
C376        N377   1.377       .  A
N378        C383   1.343       .  A
N378        C382   1.341       .  A
N378        H410   1.042       .  S
N379        C386   1.349       .  A
N379        C387   1.343       .  A
N380        C385   1.357       .  A
N380        C384   1.356   1_556  A
N380        H411   1.037       .  S
N381        C388   1.344       .  A
N381        C389   1.343       .  A
C382        C390   1.384       .  A
C382        C398   1.400       .  A
C383        C399   1.404       .  A
C383        C391   1.389       .  A
C384        C392   1.391       .  A
C384        C401   1.437   1_554  A
C385        C400   1.423       .  A
C385        C393   1.381   1_556  A
C386        C398   1.415       .  A
C386        C394   1.386       .  A
C387        C401   1.412       .  A
C387        C395   1.388   1_556  A
C388        C396   1.381       .  A
C388        C399   1.399       .  A
C389        C397   1.388       .  A
C389        C400   1.404       .  A
C390        C391   1.379       .  A
C390        H402   1.082       .  S
C391        H403   1.082       .  S
C392        C393   1.383       .  A
C392        H404   1.079       .  S
C393        H405   1.082       .  S
C394        C395   1.392   1_556  A
C394        H406   1.082       .  S
C395        H407   1.082       .  S
C396        C397   1.371       .  A
C396        H408   1.082       .  S
C397        H409   1.076       .  S
C398       C1480   1.495       .  S
C399       C1470   1.469       .  S
C400       C1513   1.494       .  S
C401       C1493   1.528       .  S
N412        C417   1.351       .  A
N412        C416   1.353       .  A
N412        H444   1.039       .  S
N413        C420   1.353       .  A
N413        C421   1.350       .  A
N414        C419   1.345   1_554  A
N414        C418   1.344   1_554  A
N414        H445   1.040       .  S
N415        C422   1.348       .  A
N415        C423   1.353       .  A
C416        C424   1.379       .  A
C416        C432   1.407       .  A
C417        C433   1.426       .  A
C417        C425   1.396       .  A
C418        C426   1.389       .  A
C418        C435   1.409   1_556  A
C419        C434   1.403   1_556  A
C419        C427   1.383       .  A
C420        C432   1.406       .  A
C420        C428   1.381       .  A
C421        C435   1.422       .  A
C421        C429   1.392       .  A
C422        C430   1.387       .  A
C422        C433   1.418       .  A
C423        C431   1.386       .  A
C423        C434   1.416       .  A
C424        C425   1.366       .  A
C424        H436   1.082       .  S
C425        H437   1.076       .  S
C426        C427   1.384       .  A
C426        H438   1.081       .  S
C427        H439   1.082       .  S
C428        C429   1.366       .  A
C428        H440   1.082       .  S
C429        H441   1.080       .  S
C430        C431   1.372       .  A
C430        H442   1.082       .  S
C431        H443   1.078       .  S
C432       C1559   1.493       .  S
C433       C1450   1.482       .  S
C434       C1460   1.507       .  S
C435       C1535   1.484       .  S
C446       C1644   1.468       .  S
C446        N447   1.383       .  A
C446        N451   1.358       .  A
N447        C448   1.379       .  A
C448       C1665   1.454       .  S
C448        N449   1.341       .  A
N449        C450   1.340       .  A
C450        N451   1.355       .  A
C450       C1440   1.442       .  S
C452       C1668   1.444       .  S
C452        N453   1.368       .  A
C452        N457   1.340       .  A
N453        C454   1.374       .  A
C454       C1642   1.465       .  S
C454        N455   1.371       .  A
N455        C456   1.366       .  A
C456        N457   1.345       .  A
C456       C1483   1.479       .  S
C458       C1736   1.461       .  S
C458        N459   1.374       .  A
C458        N463   1.352       .  A
N459        C460   1.376       .  A
C460       C1630   1.466       .  S
C460        N461   1.362       .  A
N461        C462   1.359       .  A
C462        N463   1.354       .  A
C462       C1430   1.477       .  S
C464       C1733   1.447       .  S
C464        N465   1.372       .  A
C464        N469   1.360       .  A
N465        C466   1.368       .  A
C466       C1631   1.437       .  S
C466        N467   1.340       .  A
N467        C468   1.346       .  A
C468        N469   1.356       .  A
C468       C1473   1.468       .  S
C470       C1702   1.448       .  S
C470        N471   1.350       .  A
C470        N475   1.372       .  A
N471        C472   1.350       .  A
C472        N473   1.357       .  A
C472       C1420   1.463       .  S
N473        C474   1.358       .  A
C474       C1743   1.457       .  S
C474        N475   1.373       .  A
C476       C1742   1.453       .  S
C476        N477   1.372       .  A
C476        N481   1.349       .  A
N477        C478   1.375       .  A
C478       C1704   1.461       .  S
C478        N479   1.359       .  A
N479        C480   1.359       .  A
C480        N481   1.351       .  A
C480       C1410   1.480       .  S
C482       C1591   1.448       .  S
C482        N483   1.370       .  A
C482        N487   1.354       .  A
N483        C484   1.369       .  A
C484       C1718   1.446       .  S
C484        N485   1.351       .  A
N485        C486   1.353       .  A
C486        N487   1.355       .  A
C486       C1400   1.473       .  S
C488       C1589   1.468       .  S
C488        N489   1.377       .  A
C488        N493   1.358       .  A
N489        C490   1.377       .  A
C490       C1720   1.463       .  S
C490        N491   1.354       .  A
N491        C492   1.354       .  A
C492        N493   1.357       .  A
C492       C1463   1.474       .  S
N494        C499   1.346       .  A
N494        C498   1.345       .  A
N494        H526   1.039       .  S
N495        C502   1.352       .  A
N495        C503   1.354       .  A
N496        C501   1.353   1_565  A
N496        C500   1.349       .  A
N496        H527   1.037       .  S
N497        C504   1.339       .  A
N497        C505   1.337       .  A
C498        C506   1.390       .  A
C498        C514   1.409       .  A
C499        C515   1.408       .  A
C499        C507   1.385       .  A
C500        C508   1.392   1_565  A
C500        C517   1.426       .  A
C501        C516   1.410       .  A
C501        C509   1.381       .  A
C502        C514   1.418       .  A
C502        C510   1.384       .  A
C503        C517   1.421       .  A
C503        C511   1.389       .  A
C504        C512   1.384       .  A
C504        C515   1.398       .  A
C505        C513   1.382   1_565  A
C505        C516   1.396   1_565  A
C506        C507   1.382       .  A
C506        H518   1.082       .  S
C507        H519   1.082       .  S
C508        C509   1.381       .  A
C508        H520   1.082       .  S
C509        H521   1.082       .  S
C510        C511   1.367       .  A
C510        H522   1.082       .  S
C511        H523   1.076       .  S
C512        C513   1.388   1_565  A
C512        H524   1.082   1_565  S
C513        H525   1.082       .  S
C514       C1403   1.484       .  S
C515       C1413   1.469       .  S
C516       C1433   1.513   1_545  S
C517       C1390   1.493       .  S
N528        C533   1.341       .  A
N528        C532   1.340       .  A
N528        H560   1.042       .  S
N529        C536   1.347       .  A
N529        C537   1.345       .  A
N530        C535   1.355       .  A
N530        C534   1.359       .  A
N530        H561   1.039   1_565  S
N531        C538   1.354       .  A
N531        C539   1.344       .  A
C532        C540   1.388       .  A
C532        C548   1.393       .  A
C533        C549   1.397       .  A
C533        C541   1.386       .  A
C534        C542   1.384       .  A
C534        C551   1.422   1_565  A
C535        C550   1.430       .  A
C535        C543   1.389       .  A
C536        C548   1.399       .  A
C536        C544   1.380       .  A
C537        C551   1.407       .  A
C537        C545   1.388       .  A
C538        C546   1.379       .  A
C538        C549   1.411       .  A
C539        C547   1.387   1_545  A
C539        C550   1.416   1_545  A
C540        C541   1.375       .  A
C540        H552   1.082       .  S
C541        H553   1.083       .  S
C542        C543   1.381       .  A
C542        H554   1.082       .  S
C543        H555   1.083       .  S
C544        C545   1.371       .  A
C544        H556   1.082       .  S
C545        H557   1.080       .  S
C546        C547   1.384   1_545  A
C546        H558   1.082       .  S
C547        H559   1.079       .  S
C548       C1503   1.457       .  S
C549       C1380   1.488       .  S
C550       C1568   1.513       .  S
C551       C1370   1.498       .  S
C562       C1645   1.444       .  S
C562        N563   1.350       .  A
C562        N567   1.375       .  A
N563        C564   1.347       .  A
C564        N565   1.347       .  A
C564       C1360   1.447       .  S
N565        C566   1.347       .  A
C566       C1600   1.447       .  S
C566        N567   1.374       .  A
C568       C1598   1.463       .  S
C568        N569   1.379       .  A
C568        N573   1.363       .  A
N569        C570   1.374       .  A
C570       C1648   1.454       .  S
C570        N571   1.342       .  A
N571        C572   1.348       .  A
C572        N573   1.358       .  A
C572       C1393   1.477       .  S
C574       C1669   1.518       .  S
C574        N575   1.398       .  A
C574        N579   1.371       .  A
N575        C576   1.394       .  A
C576       C1357   1.492       .  S
C576        N577   1.343       .  A
N577        C578   1.348       .  A
C578        N579   1.368       .  A
C578       C1383   1.490       .  S
C580       C1345   1.415       .  S
C580        N581   1.347       .  A
C580        N585   1.346       .  A
N581        C582   1.355       .  A
C582       C1672   1.428       .  S
C582        N583   1.369       .  A
N583        C584   1.366       .  A
C584        N585   1.351       .  A
C584       C1348   1.492       .  S
C586       C1716   1.448       .  S
C586        N587   1.339       .  A
C586        N591   1.372       .  A
N587        C588   1.346       .  A
C588        N589   1.357       .  A
C588       C1336   1.476       .  S
N589        C590   1.363       .  A
C590       C1617   1.458       .  S
C590        N591   1.378       .  A
C592       C1620   1.462       .  S
C592        N593   1.362       .  A
C592        N597   1.377       .  A
N593        C594   1.358       .  A
C594        N595   1.344       .  A
C594       C1453   1.464       .  S
N595        C596   1.341       .  A
C596       C1714   1.445       .  S
C596        N597   1.373       .  A
N598        C603   1.348       .  A
N598        C602   1.344       .  A
N598        H630   1.043       .  S
N599        C606   1.348       .  A
N599        C607   1.345       .  A
N600        C605   1.357       .  A
N600        C604   1.356       .  A
N600        H631   1.037       .  S
N601        C608   1.349       .  A
N601        C609   1.345       .  A
C602        C610   1.384       .  A
C602        C618   1.401       .  A
C603        C619   1.413       .  A
C603        C611   1.391       .  A
C604        C612   1.380       .  A
C604        C621   1.422       .  A
C605        C620   1.435       .  A
C605        C613   1.396       .  A
C606        C618   1.398       .  A
C606        C614   1.380       .  A
C607        C621   1.406       .  A
C607        C615   1.389       .  A
C608        C616   1.385       .  A
C608        C619   1.412       .  A
C609        C617   1.389       .  A
C609        C620   1.410       .  A
C610        C611   1.375       .  A
C610        H622   1.083       .  S
C611        H623   1.082       .  S
C612        C613   1.370       .  A
C612        H624   1.083       .  S
C613        H625   1.073       .  S
C614        C615   1.370       .  A
C614        H626   1.082       .  S
C615        H627   1.078       .  S
C616        C617   1.373       .  A
C616        H628   1.082       .  S
C617        H629   1.082   1_655  S
C618       C1326   1.479       .  S
C619       C1339   1.498       .  S
C620       C1423   1.502       .  S
C621       C1523   1.490       .  S
N632        C637   1.353       .  A
N632        C636   1.350       .  A
N632        H664   1.041       .  S
N633        C640   1.351       .  A
N633        C641   1.353       .  A
N634        C639   1.355       .  A
N634        C638   1.350       .  A
N634        H665   1.042       .  S
N635        C642   1.345       .  A
N635        C643   1.343       .  A
C636        C644   1.393       .  A
C636        C652   1.421       .  A
C637        C653   1.407       .  A
C637        C645   1.382       .  A
C638        C646   1.388       .  A
C638        C655   1.419       .  A
C639        C654   1.404       .  A
C639        C647   1.381       .  A
C640        C652   1.417       .  A
C640        C648   1.386       .  A
C641        C655   1.416       .  A
C641        C649   1.385   1_455  A
C642        C650   1.382       .  A
C642        C653   1.396       .  A
C643        C651   1.390       .  A
C643        C654   1.400       .  A
C644        C645   1.370       .  A
C644        H656   1.079       .  S
C645        H657   1.082       .  S
C646        C647   1.363       .  A
C646        H658   1.072       .  S
C647        H659   1.083       .  S
C648        C649   1.379   1_455  A
C648        H660   1.082       .  S
C649        H661   1.082       .  S
C650        C651   1.359       .  A
C650        H662   1.082       .  S
C651        H663   1.081       .  S
C652       C1547   1.495       .  S
C653       C1363   1.474       .  S
C654       C1443   1.468       .  S
C655       C1351   1.506       .  S
C666       C1694   1.441       .  S
C666        N667   1.352       .  A
C666        N671   1.367       .  A
N667        C668   1.352       .  A
C668        N669   1.355       .  A
C668       C1329   1.468       .  S
N669        C670   1.353       .  A
C670       C1624   1.445       .  S
C670        N671   1.368       .  A
C672       C1622   1.470       .  S
C672        N673   1.378       .  A
C672        N677   1.352       .  A
N673        C674   1.381       .  A
C674       C1696   1.482       .  S
C674        N675   1.366       .  A
N675        C676   1.365       .  A
C676        N677   1.354       .  A
C676       C1373   1.487       .  S
C678       C1698   1.457       .  S
C678        N679   1.358       .  A
C678        N683   1.381       .  A
N679        C680   1.352       .  A
C680        N681   1.340   1_554  A
C680       C1316   1.450       .  S
N681        C682   1.337       .  A
C682       C1732   1.447       .  S
C682        N683   1.377   1_556  A
C684       C1730   1.464       .  S
C684        N685   1.371       .  A
C684        N689   1.375       .  A
N685        C686   1.365       .  A
C686        N687   1.348   1_556  A
C686       C1306   1.490   1_556  S
N687        C688   1.340       .  A
C688       C1699   1.449       .  S
C688        N689   1.368   1_554  A
C690       C1627   1.457   1_655  S
C690        N691   1.338   1_655  A
C690        N695   1.373       .  A
N691        C692   1.347   1_455  A
C692        N693   1.369       .  A
C692       C1296   1.494       .  S
N693        C694   1.375       .  A
C694       C1726   1.480       .  S
C694        N695   1.381       .  A
C696       C1625   1.455       .  S
C696        N697   1.356       .  A
C696        N701   1.379   1_455  A
N697        C698   1.352   1_455  A
C698        N699   1.340       .  A
C698       C1286   1.448       .  S
N699        C700   1.338       .  A
C700       C1728   1.444       .  S
C700        N701   1.376       .  A
C702       C1724   1.448       .  S
C702        N703   1.341       .  A
C702        N707   1.377   1_565  A
N703        C704   1.342   1_565  A
C704        N705   1.352       .  A
C704       C1276   1.448       .  S
N705        C706   1.355       .  A
C706       C1673   1.457       .  S
C706        N707   1.379       .  A
C708       C1675   1.459       .  S
C708        N709   1.374   1_545  A
C708        N713   1.340       .  A
N709        C710   1.380       .  A
C710       C1722   1.477       .  S
C710        N711   1.373       .  A
N711        C712   1.367       .  A
C712        N713   1.349   1_565  A
C712       C1266   1.492       .  S
C714       C1649   1.505       .  S
C714        N715   1.359       .  A
C714        N719   1.400   1_556  A
N715        C716   1.357   1_556  A
C716        N717   1.351       .  A
C716       C1256   1.475       .  S
N717        C718   1.345       .  A
C718       C1253   1.498       .  S
C718        N719   1.397       .  A
C720       C1241   1.417       .  S
C720        N721   1.346       .  A
C720        N725   1.349   1_554  A
N721        C722   1.351       .  A
C722        N723   1.364   1_554  A
C722       C1244   1.478       .  S
N723        C724   1.363       .  A
C724       C1652   1.429       .  S
C724        N725   1.355       .  A
C726       C1608   1.470       .  S
C726        N727   1.375   1_545  A
C726        N731   1.370   1_545  A
N727        C728   1.370       .  A
C728       C1709   1.450       .  S
C728        N729   1.345       .  A
N729        C730   1.349       .  A
C730        N731   1.368       .  A
C730       C1232   1.493       .  S
C732       C1712   1.438       .  S
C732        N733   1.340       .  A
C732        N737   1.369   1_565  A
N733        C734   1.344   1_565  A
C734        N735   1.356       .  A
C734       C1222   1.462       .  S
N735        C736   1.362       .  A
C736       C1605   1.451       .  S
C736        N737   1.374       .  A
N738        C743   1.351       .  A
N738        C742   1.354       .  A
N738        H770   1.038       .  S
N739        C746   1.344       .  A
N739        C747   1.344       .  A
N740        C745   1.344       .  A
N740        C744   1.349   1_545  A
N740        H771   1.035       .  S
N741        C748   1.347       .  A
N741        C749   1.350       .  A
C742        C750   1.386       .  A
C742        C758   1.420       .  A
C743        C759   1.422       .  A
C743        C751   1.390       .  A
C744        C752   1.387       .  A
C744        C761   1.412       .  A
C745        C760   1.417       .  A
C745        C753   1.389   1_545  A
C746        C758   1.403   1_565  A
C746        C754   1.386       .  A
C747        C761   1.407   1_556  A
C747        C755   1.386       .  A
C748        C756   1.388       .  A
C748        C759   1.410   1_554  A
C749        C757   1.384       .  A
C749        C760   1.411       .  A
C750        C751   1.377       .  A
C750        H762   1.081       .  S
C751        H763   1.080       .  S
C752        C753   1.374       .  A
C752        H764   1.080       .  S
C753        H765   1.080       .  S
C754        C755   1.373       .  A
C754        H766   1.082       .  S
C755        H767   1.083       .  S
C756        C757   1.378       .  A
C756        H768   1.082       .  S
C757        H769   1.082       .  S
C758       C1192   1.491       .  S
C759       C1259   1.492       .  S
C760       C1212   1.488       .  S
C761       C1202   1.485       .  S
N772        C777   1.346       .  A
N772        C776   1.352   1_554  A
N772        H804   1.041       .  S
N773        C780   1.335   1_554  A
N773        C781   1.339   1_565  A
N774        C779   1.340       .  A
N774        C778   1.352   1_565  A
N774        H805   1.043       .  S
N775        C782   1.350       .  A
N775        C783   1.350       .  A
C776        C784   1.382       .  A
C776        C792   1.405       .  A
C777        C793   1.418       .  A
C777        C785   1.391   1_554  A
C778        C786   1.381       .  A
C778        C795   1.396       .  A
C779        C794   1.407       .  A
C779        C787   1.386       .  A
C780        C792   1.391       .  A
C780        C788   1.386   1_565  A
C781        C795   1.389       .  A
C781        C789   1.387       .  A
C782        C790   1.389       .  A
C782        C793   1.422       .  A
C783        C791   1.384       .  A
C783        C794   1.414       .  A
C784        C785   1.372       .  A
C784        H796   1.082       .  S
C785        H797   1.080       .  S
C786        C787   1.368   1_545  A
C786        H798   1.082       .  S
C787        H799   1.074       .  S
C788        C789   1.367   1_556  A
C788        H800   1.083       .  S
C789        H801   1.082       .  S
C790        C791   1.389       .  A
C790        H802   1.082       .  S
C791        H803   1.082       .  S
C792       C1279   1.465       .  S
C793       C1309   1.503       .  S
C794       C1235   1.495       .  S
C795       C1182   1.461       .  S
C806       C1610   1.446       .  S
C806        N807   1.342       .  A
C806        N811   1.377       .  A
N807        C808   1.339       .  A
C808        N809   1.351       .  A
C808       C1185   1.439       .  S
N809        C810   1.355       .  A
C810       C1683   1.459   1_554  S
C810        N811   1.380       .  A
C812       C1682   1.467       .  S
C812        N813   1.356       .  A
C812        N817   1.378   1_556  A
N813        C814   1.356       .  A
C814        N815   1.355   1_556  A
C814       C1172   1.471       .  S
N815        C816   1.354       .  A
C816       C1611   1.467       .  S
C816        N817   1.378       .  A
C818       C1579   1.422       .  S
C818        N819   1.354       .  A
C818        N823   1.364       .  A
N819        C820   1.346   1_565  A
C820       C1169   1.410       .  S
C820        N821   1.345       .  A
N821        C822   1.348       .  A
C822        N823   1.364   1_545  A
C822       C1215   1.479       .  S
C824       C1157   1.511       .  S
C824        N825   1.400       .  A
C824        N829   1.358       .  A
N825        C826   1.399   1_545  A
C826       C1578   1.499       .  S
C826        N827   1.350       .  A
N827        C828   1.350   1_565  A
C828        N829   1.359       .  A
C828       C1163   1.474   1_545  S
C830       C1707   1.466       .  S
C830        N831   1.382   1_655  A
C830        N835   1.360       .  A
N831        C832   1.378       .  A
C832       C1582   1.448       .  S
C832        N833   1.338       .  A
N833        C834   1.337       .  A
C834        N835   1.355   1_455  A
C834       C1148   1.442       .  S
C836       C1706   1.460       .  S
C836        N837   1.354       .  A
C836        N841   1.376       .  A
N837        C838   1.354       .  A
C838        N839   1.353   1_655  A
C838       C1138   1.465       .  S
N839        C840   1.353       .  A
C840       C1583   1.461       .  S
C840        N841   1.377   1_455  A
N842        C847   1.352       .  A
N842        C846   1.353       .  A
N842        H874   1.039       .  S
N843        C850   1.346       .  A
N843        C851   1.345       .  A
N844        C849   1.346   1_556  A
N844        C848   1.348       .  A
N844        H875   1.038   1_556  S
N845        C852   1.344       .  A
N845        C853   1.349       .  A
C846        C854   1.388       .  A
C846        C862   1.419       .  A
C847        C863   1.418       .  A
C847        C855   1.389       .  A
C848        C856   1.389       .  A
C848        C865   1.413       .  A
C849        C864   1.413       .  A
C849        C857   1.386   1_554  A
C850        C862   1.406   1_556  A
C850        C858   1.385       .  A
C851        C865   1.408   1_655  A
C851        C859   1.386       .  A
C852        C860   1.386       .  A
C852        C863   1.404   1_455  A
C853        C861   1.385       .  A
C853        C864   1.410       .  A
C854        C855   1.373       .  A
C854        H866   1.081       .  S
C855        H867   1.080       .  S
C856        C857   1.372       .  A
C856        H868   1.079       .  S
C857        H869   1.082       .  S
C858        C859   1.374       .  A
C858        H870   1.082       .  S
C859        H871   1.080       .  S
C860        C861   1.379       .  A
C860        H872   1.082       .  S
C861        H873   1.081       .  S
C862       C1175   1.492   1_554  S
C863       C1128   1.487       .  S
C864       C1247   1.493       .  S
C865       C1121   1.487   1_455  S
N876        C881   1.343       .  A
N876        C880   1.353   1_455  A
N876        H908   1.041       .  S
N877        C884   1.334   1_455  A
N877        C885   1.335   1_556  A
N878        C883   1.342       .  A
N878        C882   1.353   1_556  A
N878        H909   1.043       .  S
N879        C886   1.351       .  A
N879        C887   1.351       .  A
C880        C888   1.382       .  A
C880        C896   1.406       .  A
C881        C897   1.417       .  A
C881        C889   1.390   1_455  A
C882        C890   1.381       .  A
C882        C899   1.399       .  A
C883        C898   1.410       .  A
C883        C891   1.386       .  A
C884        C896   1.387       .  A
C884        C892   1.384   1_556  A
C885        C899   1.390       .  A
C885        C893   1.390       .  A
C886        C894   1.389       .  A
C886        C897   1.423       .  A
C887        C895   1.385       .  A
C887        C898   1.415       .  A
C888        C889   1.373       .  A
C888        H900   1.082       .  S
C889        H901   1.078       .  S
C890        C891   1.371   1_554  A
C890        H902   1.082       .  S
C891        H903   1.072       .  S
C892        C893   1.368   1_655  A
C892        H904   1.083       .  S
C893        H905   1.082       .  S
C894        C895   1.391       .  A
C894        H906   1.082       .  S
C895        H907   1.082       .  S
C896       C1319   1.468       .  S
C897       C1299   1.503       .  S
C898       C1108   1.496       .  S
C899       C1151   1.462       .  S
C910       C1585   1.438       .  S
C910        N911   1.358       .  A
C910        N915   1.369       .  A
N911        C912   1.353       .  A
C912        N913   1.349   1_554  A
C912       C1205   1.465       .  S
N913        C914   1.343       .  A
C914       C1636   1.438       .  S
C914        N915   1.365   1_556  A
C916       C1634   1.449       .  S
C916        N917   1.370       .  A
C916        N921   1.344       .  A
N917        C918   1.375   1_556  A
C918       C1588   1.473       .  S
C918        N919   1.371       .  A
N919        C920   1.369   1_554  A
C920        N921   1.348       .  A
C920       C1111   1.496       .  S
C922       C1106   1.494       .  S
C922        N923   1.349       .  A
C922        N927   1.397   1_455  A
N923        C924   1.351   1_455  A
C924        N925   1.355       .  A
C924       C1131   1.471       .  S
N925        C926   1.356       .  A
C926       C1601   1.502       .  S
C926        N927   1.398       .  A
C928       C1093   1.410       .  S
C928        N929   1.347   1_455  A
C928        N933   1.346       .  A
N929        C930   1.353       .  A
C930       C1604   1.423       .  S
C930        N931   1.362       .  A
N931        C932   1.362   1_655  A
C932        N933   1.350       .  A
C932       C1096   1.470       .  S
C934       C1687   1.446       .  S
C934        N935   1.340       .  A
C934        N939   1.372   1_655  A
N935        C936   1.345   1_655  A
C936        N937   1.357       .  A
C936       C1118   1.468       .  S
N937        C938   1.362       .  A
C938       C1657   1.458       .  S
C938        N939   1.377       .  A
C940       C1686   1.454       .  S
C940        N941   1.344       .  A
C940        N945   1.370       .  A
N941        C942   1.350       .  A
C942        N943   1.371       .  A
C942       C1087   1.500       .  S
N943        C944   1.374       .  A
C944       C1659   1.478   1_655  S
C944        N945   1.376       .  A
N946        C951   1.355       .  A
N946        C950   1.352       .  A
N946        H978   1.040       .  S
N947        C954   1.346       .  A
N947        C955   1.348       .  A
N948        C953   1.345       .  A
N948        C952   1.346       .  A
N948        H979   1.031       .  S
N949        C956   1.344       .  A
N949        C957   1.346       .  A
C950        C958   1.390       .  A
C950        C966   1.421   1_455  A
C951        C967   1.416       .  A
C951        C959   1.386       .  A
C952        C960   1.387       .  A
C952        C969   1.411       .  A
C953        C968   1.420   1_655  A
C953        C961   1.389       .  A
C954        C966   1.409       .  A
C954        C962   1.387       .  A
C955        C969   1.408   1_565  A
C955        C963   1.384       .  A
C956        C964   1.384       .  A
C956        C967   1.400   1_545  A
C957        C965   1.386       .  A
C957        C968   1.410       .  A
C958        C959   1.375       .  A
C958        H970   1.081       .  S
C959        H971   1.081       .  S
C960        C961   1.371       .  A
C960        H972   1.079       .  S
C961        H973   1.079       .  S
C962        C963   1.374       .  A
C962        H974   1.083       .  S
C963        H975   1.083       .  S
C964        C965   1.376       .  A
C964        H976   1.082       .  S
C965        H977   1.082       .  S
C966       C1141   1.488       .  S
C967       C1160   1.490       .  S
C968       C1099   1.485       .  S
C969       C1225   1.480       .  S
N980        C985   1.353       .  A
N980        C984   1.354       .  A
N980       H1012   1.036       .  S
N981        C988   1.345       .  A
N981        C989   1.351   1_545  A
N982        C987   1.339   1_655  A
N982        C986   1.337   1_545  A
N982       H1013   1.036       .  S
N983        C990   1.343       .  A
N983        C991   1.352       .  A
C984        C992   1.389       .  A
C984       C1000   1.426       .  A
C985       C1001   1.421       .  A
C985        C993   1.386       .  A
C986        C994   1.387   1_655  A
C986       C1003   1.392       .  A
C987       C1002   1.390       .  A
C987        C995   1.389       .  A
C988       C1000   1.415       .  A
C988        C996   1.390   1_545  A
C989       C1003   1.401       .  A
C989        C997   1.380       .  A
C990        C998   1.385       .  A
C990       C1001   1.408       .  A
C991        C999   1.379       .  A
C991       C1002   1.393   1_655  A
C992        C993   1.395       .  A
C992       H1004   1.082       .  S
C993       H1005   1.082       .  S
C994        C995   1.371   1_565  A
C994       H1006   1.082       .  S
C995       H1007   1.082       .  S
C996        C997   1.369       .  A
C996       H1008   1.078       .  S
C997       H1009   1.082       .  S
C998        C999   1.365       .  A
C998       H1010   1.074       .  S
C999       H1011   1.083   1_655  S
C1000      C1269   1.503       .  S
C1001      C1084   1.497       .  S
C1002      C1074   1.457       .  S
C1003      C1289   1.464       .  S
C1014      C1655   1.446       .  S
C1014      N1015   1.345       .  A
C1014      N1019   1.372   1_545  A
N1015      C1016   1.347   1_545  A
C1016      N1017   1.358       .  A
C1016      C1195   1.466       .  S
N1017      C1018   1.361       .  A
C1018      C1638   1.459       .  S
C1018      N1019   1.374       .  A
C1020      C1640   1.462       .  S
C1020      N1021   1.383   1_565  A
C1020      N1025   1.355       .  A
N1021      C1022   1.379       .  A
C1022      C1654   1.447       .  S
C1022      N1023   1.339       .  A
N1023      C1024   1.337       .  A
C1024      N1025   1.351   1_545  A
C1024      C1077   1.436       .  S
O1026      C1053   1.273       .  A
O1026     Mn1052   2.096       .  S
C1027      O1060   1.268       .  A
C1027      O1057   1.269       .  A
C1027      C1170   1.413       .  S
O1028     Mn1035   2.151       .  S
O1028     Mn1046   2.139       .  S
O1028     Mn1050   2.146       .  S
O1028     Mn1052   2.125       .  S
O1029      C1039   1.269       .  A
O1029     Mn1063   2.073       .  S
O1030      C1053   1.266       .  A
O1030     Mn1046   2.071       .  S
O1031      C1058   1.270       .  A
O1031     Mn1050   2.163       .  S
O1032     Mn1063   2.009       .  S
O1032     Mn1052   1.960       .  S
O1032      C1048   1.232       .  S
C1033      O1036   1.269       .  A
C1033      C1553   1.509       .  S
C1033      O1059   1.240       .  S
O1034     Mn1054   2.141       .  S
O1034     Mn1035   2.164       .  S
O1034     Mn1068   2.133       .  S
O1034     Mn1050   2.157       .  S
Mn1035     O1064   2.155       .  S
Mn1035     O1040   2.144       .  S
Mn1035     O1067   2.174       .  S
Mn1035     O1041   2.148       .  S
O1036     Mn1050   2.154       .  S
O1037      C1039   1.272       .  A
O1037     Mn1044   2.097       .  S
C1038      O1064   1.267       .  A
C1038      C1254   1.508       .  S
C1038      O1051   1.238       .  S
C1039      C1566   1.421       .  S
O1040      C1065   1.265       .  A
O1041     Mn1044   2.127       .  S
O1041     Mn1063   2.142       .  S
O1041     Mn1050   2.152       .  S
O1042     Mn1046   1.962       .  S
O1042     Mn1068   2.028       .  S
O1042      C1065   1.239       .  S
C1043      O1069   1.274       .  A
C1043      O1045   1.272       .  A
C1043      C1529   1.430       .  S
Mn1044     O1057   2.079       .  S
Mn1044     O1059   1.985       .  S
Mn1044     O1051   2.014       .  S
O1045     Mn1068   2.098       .  S
Mn1046     O1062   2.091       .  S
Mn1046     O1056   2.009       .  S
O1047      C1049   1.266       .  A
O1047     Mn1052   2.066       .  S
C1048      O1066   1.270       .  A
C1048      C1358   1.502       .  S
C1049      O1062   1.269       .  A
C1049      C1094   1.412       .  S
Mn1050     O1066   2.168       .  S
O1051     Mn1054   1.951       .  S
Mn1052     O1070   2.015       .  S
C1053      C1346   1.418       .  S
Mn1054     O1061   2.085       .  S
Mn1054     O1069   2.089       .  S
Mn1054     O1059   2.036       .  S
C1055      O1061   1.269       .  A
C1055      O1071   1.270       .  A
C1055      C1242   1.416       .  S
O1056     Mn1068   1.965       .  S
O1056      C1058   1.237       .  S
C1058      C1541   1.506       .  S
O1060     Mn1063   2.078       .  S
Mn1063     O1070   1.958       .  S
C1065      C1105   1.502       .  S
O1067      C1072   1.269       .  A
Mn1068     O1071   2.080       .  S
O1070      C1072   1.235       .  S
C1072      C1158   1.516       .  S
C1073      C1074   1.394       .  A
C1073      C1078   1.390       .  A
C1073      H1079   1.081       .  S
C1074      C1075   1.405       .  A
C1075      C1076   1.383       .  A
C1075      H1080   1.084       .  S
C1076      C1077   1.393       .  A
C1076      H1081   1.084       .  S
C1077      C1078   1.402       .  A
C1078      H1082   1.083       .  S
C1083      C1084   1.416       .  A
C1083      C1088   1.406       .  A
C1083      H1089   1.080       .  S
C1084      C1085   1.399       .  A
C1085      C1086   1.402       .  A
C1085      H1090   1.083       .  S
C1086      C1087   1.418       .  A
C1086      H1091   1.083       .  S
C1087      C1088   1.403       .  A
C1088      H1092   1.083       .  S
C1093      C1094   1.191       .  T
C1095      C1096   1.404       .  A
C1095      C1100   1.386       .  A
C1095      H1101   1.083       .  S
C1096      C1097   1.401       .  A
C1097      C1098   1.399       .  A
C1097      H1102   1.082   1_455  S
C1098      C1099   1.407       .  A
C1098      H1103   1.081   1_455  S
C1099      C1100   1.403       .  A
C1100      H1104   1.082       .  S
C1105      C1106   1.245       .  T
C1107      C1108   1.399       .  A
C1107      C1112   1.401       .  A
C1107      H1113   1.083       .  S
C1108      C1109   1.415       .  A
C1109      C1110   1.401       .  A
C1109      H1114   1.075       .  S
C1110      C1111   1.401       .  A
C1110      H1115   1.083       .  S
C1111      C1112   1.418       .  A
C1112      H1116   1.083       .  S
C1117      C1118   1.403   1_655  A
C1117      C1122   1.378       .  A
C1117      H1123   1.083       .  S
C1118      C1119   1.403       .  A
C1119      C1120   1.401       .  A
C1119      H1124   1.083       .  S
C1120      C1121   1.408   1_455  A
C1120      H1125   1.080       .  S
C1121      C1122   1.401       .  A
C1122      H1126   1.080       .  S
C1127      C1128   1.404       .  A
C1127      C1132   1.399       .  A
C1127      H1133   1.083       .  S
C1128      C1129   1.406   1_655  A
C1129      C1130   1.388       .  A
C1129      H1134   1.083       .  S
C1130      C1131   1.402   1_455  A
C1130      H1135   1.083       .  S
C1131      C1132   1.405       .  A
C1132      H1136   1.083       .  S
C1137      C1138   1.399       .  A
C1137      C1142   1.386       .  A
C1137      H1143   1.084       .  S
C1138      C1139   1.405       .  A
C1139      C1140   1.399   1_655  A
C1139      H1144   1.083   1_655  S
C1140      C1141   1.404   1_455  A
C1140      H1145   1.083       .  S
C1141      C1142   1.407       .  A
C1142      H1146   1.081       .  S
C1147      C1148   1.395       .  A
C1147      C1152   1.388       .  A
C1147      H1153   1.084       .  S
C1148      C1149   1.402       .  A
C1149      C1150   1.390       .  A
C1149      H1154   1.084       .  S
C1150      C1151   1.396       .  A
C1150      H1155   1.081       .  S
C1151      C1152   1.406       .  A
C1152      H1156   1.084       .  S
C1157      C1158   1.253       .  T
C1159      C1160   1.403       .  A
C1159      C1164   1.402       .  A
C1159      H1165   1.083       .  S
C1160      C1161   1.409   1_565  A
C1161      C1162   1.390       .  A
C1161      H1166   1.083       .  S
C1162      C1163   1.398   1_545  A
C1162      H1167   1.083       .  S
C1163      C1164   1.410       .  A
C1164      H1168   1.083       .  S
C1169      C1170   1.191       .  T
C1171      C1172   1.399       .  A
C1171      C1176   1.390       .  A
C1171      H1177   1.083       .  S
C1172      C1173   1.406   1_556  A
C1173      C1174   1.399       .  A
C1173      H1178   1.083       .  S
C1174      C1175   1.404   1_554  A
C1174      H1179   1.083       .  S
C1175      C1176   1.408       .  A
C1176      H1180   1.080       .  S
C1181      C1182   1.404       .  A
C1181      C1186   1.383       .  A
C1181      H1187   1.084       .  S
C1182      C1183   1.396       .  A
C1183      C1184   1.392       .  A
C1183      H1188   1.080       .  S
C1184      C1185   1.402       .  A
C1184      H1189   1.083       .  S
C1185      C1186   1.394       .  A
C1186      H1190   1.084       .  S
C1191      C1192   1.402       .  A
C1191      C1196   1.398       .  A
C1191      H1197   1.083       .  S
C1192      C1193   1.409   1_545  A
C1193      C1194   1.388       .  A
C1193      H1198   1.078       .  S
C1194      C1195   1.395       .  A
C1194      H1199   1.084       .  S
C1195      C1196   1.409   1_565  A
C1196      H1200   1.083       .  S
C1201      C1202   1.400   1_556  A
C1201      C1206   1.374       .  A
C1201      H1207   1.078       .  S
C1202      C1203   1.407       .  A
C1203      C1204   1.403       .  A
C1203      H1208   1.081       .  S
C1204      C1205   1.406       .  A
C1204      H1209   1.083       .  S
C1205      C1206   1.399   1_554  A
C1206      H1210   1.083       .  S
C1211      C1212   1.401       .  A
C1211      C1216   1.392       .  A
C1211      H1217   1.083       .  S
C1212      C1213   1.408       .  A
C1213      C1214   1.399       .  A
C1213      H1218   1.078       .  S
C1214      C1215   1.399       .  A
C1214      H1219   1.082   1_545  S
C1215      C1216   1.410       .  A
C1216      H1220   1.083       .  S
C1221      C1222   1.401   1_565  A
C1221      C1226   1.376       .  A
C1221      H1227   1.084       .  S
C1222      C1223   1.403       .  A
C1223      C1224   1.403       .  A
C1223      H1228   1.083       .  S
C1224      C1225   1.408       .  A
C1224      H1229   1.080       .  S
C1225      C1226   1.399   1_545  A
C1226      H1230   1.082       .  S
C1231      C1232   1.402       .  A
C1231      C1236   1.402       .  A
C1231      H1237   1.082       .  S
C1232      C1233   1.416       .  A
C1233      C1234   1.399       .  A
C1233      H1238   1.083       .  S
C1234      C1235   1.399       .  A
C1234      H1239   1.083       .  S
C1235      C1236   1.415       .  A
C1236      H1240   1.077       .  S
C1241      C1242   1.195       .  T
C1243      C1244   1.398       .  A
C1243      C1248   1.397       .  A
C1243      H1249   1.083   1_554  S
C1244      C1245   1.409       .  A
C1245      C1246   1.392       .  A
C1245      H1250   1.083       .  S
C1246      C1247   1.403       .  A
C1246      H1251   1.081       .  S
C1247      C1248   1.409       .  A
C1248      H1252   1.078   1_554  S
C1253      C1254   1.249       .  T
C1255      C1256   1.403       .  A
C1255      C1260   1.382       .  A
C1255      H1261   1.083       .  S
C1256      C1257   1.406   1_554  A
C1257      C1258   1.403       .  A
C1257      H1262   1.082       .  S
C1258      C1259   1.407       .  A
C1258      H1263   1.083       .  S
C1259      C1260   1.405   1_556  A
C1260      H1264   1.083       .  S
C1265      C1266   1.402       .  A
C1265      C1270   1.406       .  A
C1265      H1271   1.083       .  S
C1266      C1267   1.414   1_565  A
C1267      C1268   1.401       .  A
C1267      H1272   1.084       .  S
C1268      C1269   1.402       .  A
C1268      H1273   1.082       .  S
C1269      C1270   1.418   1_545  A
C1270      H1274   1.084       .  S
C1275      C1276   1.396       .  A
C1275      C1280   1.385       .  A
C1275      H1281   1.083       .  S
C1276      C1277   1.404   1_545  A
C1277      C1278   1.388       .  A
C1277      H1282   1.084       .  S
C1278      C1279   1.395       .  A
C1278      H1283   1.080       .  S
C1279      C1280   1.405   1_565  A
C1280      H1284   1.084       .  S
C1285      C1286   1.405       .  A
C1285      C1290   1.385       .  A
C1285      H1291   1.084       .  S
C1286      C1287   1.396       .  A
C1287      C1288   1.386       .  A
C1287      H1292   1.083   1_655  S
C1288      C1289   1.406       .  A
C1288      H1293   1.084       .  S
C1289      C1290   1.394       .  A
C1290      H1294   1.081       .  S
C1295      C1296   1.415   1_455  A
C1295      C1300   1.399       .  A
C1295      H1301   1.084       .  S
C1296      C1297   1.402       .  A
C1297      C1298   1.406       .  A
C1297      H1302   1.083       .  S
C1298      C1299   1.418   1_655  A
C1298      H1303   1.081       .  S
C1299      C1300   1.402       .  A
C1300      H1304   1.081       .  S
C1305      C1306   1.411       .  A
C1305      C1310   1.396       .  A
C1305      H1311   1.084       .  S
C1306      C1307   1.402   1_554  A
C1307      C1308   1.406       .  A
C1307      H1312   1.083       .  S
C1308      C1309   1.417   1_556  A
C1308      H1313   1.084       .  S
C1309      C1310   1.402       .  A
C1310      H1314   1.081       .  S
C1315      C1316   1.396       .  A
C1315      C1320   1.390       .  A
C1315      H1321   1.083       .  S
C1316      C1317   1.405   1_554  A
C1317      C1318   1.385       .  A
C1317      H1322   1.084       .  S
C1318      C1319   1.393       .  A
C1318      H1323   1.080       .  S
C1319      C1320   1.408   1_556  A
C1320      H1324   1.084       .  S
C1325      C1326   1.405       .  A
C1325      C1330   1.392       .  A
C1325      H1331   1.083       .  S
C1326      C1327   1.402       .  A
C1327      C1328   1.391       .  A
C1327      H1332   1.083       .  S
C1328      C1329   1.406       .  A
C1328      H1333   1.083       .  S
C1329      C1330   1.402       .  A
C1330      H1334   1.083       .  S
C1335      C1336   1.401       .  A
C1335      C1340   1.399       .  A
C1335      H1341   1.083       .  S
C1336      C1337   1.405       .  A
C1337      C1338   1.384       .  A
C1337      H1342   1.084       .  S
C1338      C1339   1.404       .  A
C1338      H1343   1.079       .  S
C1339      C1340   1.412       .  A
C1340      H1344   1.082       .  S
C1345      C1346   1.194       .  T
C1347      C1348   1.404       .  A
C1347      C1352   1.406       .  A
C1347      H1353   1.083       .  S
C1348      C1349   1.409       .  A
C1349      C1350   1.394       .  A
C1349      H1354   1.084       .  S
C1350      C1351   1.407       .  A
C1350      H1355   1.081       .  S
C1351      C1352   1.415       .  A
C1352      H1356   1.083   1_455  S
C1357      C1358   1.245       .  T
C1359      C1360   1.398       .  A
C1359      C1364   1.387       .  A
C1359      H1365   1.084       .  S
C1360      C1361   1.400       .  A
C1361      C1362   1.388       .  A
C1361      H1366   1.084       .  S
C1362      C1363   1.403       .  A
C1362      H1367   1.084       .  S
C1363      C1364   1.399       .  A
C1364      H1368   1.073       .  S
C1369      C1370   1.410       .  A
C1369      C1374   1.404       .  A
C1369      H1375   1.080   1_545  S
C1370      C1371   1.405       .  A
C1371      C1372   1.397       .  A
C1371      H1376   1.083       .  S
C1372      C1373   1.408       .  A
C1372      H1377   1.083       .  S
C1373      C1374   1.404       .  A
C1374      H1378   1.080       .  S
C1379      C1380   1.396       .  A
C1379      C1384   1.399       .  A
C1379      H1385   1.083       .  S
C1380      C1381   1.412       .  A
C1381      C1382   1.401       .  A
C1381      H1386   1.083       .  S
C1382      C1383   1.401       .  A
C1382      H1387   1.083       .  S
C1383      C1384   1.416       .  A
C1384      H1388   1.083       .  S
C1389      C1390   1.409       .  A
C1389      C1394   1.403       .  A
C1389      H1395   1.079       .  S
C1390      C1391   1.403       .  A
C1391      C1392   1.381       .  A
C1391      H1396   1.081       .  S
C1392      C1393   1.404       .  A
C1392      H1397   1.083       .  S
C1393      C1394   1.404       .  A
C1394      H1398   1.083       .  S
C1399      C1400   1.405       .  A
C1399      C1404   1.395       .  A
C1399      H1405   1.083       .  S
C1400      C1401   1.406       .  A
C1401      C1402   1.392       .  A
C1401      H1406   1.083       .  S
C1402      C1403   1.402       .  A
C1402      H1407   1.083       .  S
C1403      C1404   1.406       .  A
C1404      H1408   1.083       .  S
C1409      C1410   1.402       .  A
C1409      C1414   1.392       .  A
C1409      H1415   1.083       .  S
C1410      C1411   1.411       .  A
C1411      C1412   1.397       .  A
C1411      H1416   1.083       .  S
C1412      C1413   1.398       .  A
C1412      H1417   1.083       .  S
C1413      C1414   1.402       .  A
C1414      H1418   1.080       .  S
C1419      C1420   1.396       .  A
C1419      C1424   1.383       .  A
C1419      H1425   1.084       .  S
C1420      C1421   1.403       .  A
C1421      C1422   1.403       .  A
C1421      H1426   1.083       .  S
C1422      C1423   1.406       .  A
C1422      H1427   1.082       .  S
C1423      C1424   1.412       .  A
C1424      H1428   1.081       .  S
C1429      C1430   1.403       .  A
C1429      C1434   1.397       .  A
C1429      H1435   1.083       .  S
C1430      C1431   1.400       .  A
C1431      C1432   1.400       .  A
C1431      H1436   1.083       .  S
C1432      C1433   1.418       .  A
C1432      H1437   1.077       .  S
C1433      C1434   1.410       .  A
C1434      H1438   1.083       .  S
C1439      C1440   1.396       .  A
C1439      C1444   1.378       .  A
C1439      H1445   1.084       .  S
C1440      C1441   1.401       .  A
C1441      C1442   1.399       .  A
C1441      H1446   1.083       .  S
C1442      C1443   1.403       .  A
C1442      H1447   1.081       .  S
C1443      C1444   1.401       .  A
C1444      H1448   1.084       .  S
C1449      C1450   1.406       .  A
C1449      C1454   1.401       .  A
C1449      H1455   1.083       .  S
C1450      C1451   1.400       .  A
C1451      C1452   1.382       .  A
C1451      H1456   1.084       .  S
C1452      C1453   1.404       .  A
C1452      H1457   1.084       .  S
C1453      C1454   1.401       .  A
C1454      H1458   1.083       .  S
C1459      C1460   1.416       .  A
C1459      C1464   1.393       .  A
C1459      H1465   1.080       .  S
C1460      C1461   1.407       .  A
C1461      C1462   1.401       .  A
C1461      H1466   1.079       .  S
C1462      C1463   1.403       .  A
C1462      H1467   1.080       .  S
C1463      C1464   1.397       .  A
C1464      H1468   1.083       .  S
C1469      C1470   1.396       .  A
C1469      C1474   1.380       .  A
C1469      H1475   1.084       .  S
C1470      C1471   1.404       .  A
C1471      C1472   1.398       .  A
C1471      H1476   1.083       .  S
C1472      C1473   1.404       .  A
C1472      H1477   1.083       .  S
C1473      C1474   1.407       .  A
C1474      H1478   1.083       .  S
C1479      C1480   1.416       .  A
C1479      C1484   1.395       .  A
C1479      H1485   1.082       .  S
C1480      C1481   1.399       .  A
C1481      C1482   1.407       .  A
C1481      H1486   1.083       .  S
C1482      C1483   1.417       .  A
C1482      H1487   1.083       .  S
C1483      C1484   1.396       .  A
C1484      H1488   1.084       .  S
C1489      C1490   1.400       .  A
C1489      C1494   1.397       .  A
C1489      H1495   1.083       .  S
C1490      C1491   1.400       .  A
C1491      C1492   1.394       .  A
C1491      H1496   1.083       .  S
C1492      C1493   1.420       .  A
C1492      H1497   1.080       .  S
C1493      C1494   1.413       .  A
C1494      H1498   1.070       .  S
C1499      C1500   1.397       .  A
C1499      C1504   1.384       .  A
C1499      H1505   1.084       .  S
C1500      C1501   1.405       .  A
C1501      C1502   1.392       .  A
C1501      H1506   1.083       .  S
C1502      C1503   1.396       .  A
C1502      H1507   1.083       .  S
C1503      C1504   1.403       .  A
C1504      H1508   1.084       .  S
C1509      C1510   1.405       .  A
C1509      C1514   1.396       .  A
C1509      H1515   1.083       .  S
C1510      C1511   1.399       .  A
C1511      C1512   1.399       .  A
C1511      H1516   1.083       .  S
C1512      C1513   1.409       .  A
C1512      H1517   1.075       .  S
C1513      C1514   1.406       .  A
C1514      H1518   1.083       .  S
C1519      C1520   1.398       .  A
C1519      C1524   1.380       .  A
C1519      H1525   1.084       .  S
C1520      C1521   1.401       .  A
C1521      C1522   1.402       .  A
C1521      H1526   1.083       .  S
C1522      C1523   1.410       .  A
C1522      H1527   1.080       .  S
C1523      C1524   1.405       .  A
C1524      H1528   1.083       .  S
C1529      C1530   1.204       .  T
C1531      C1532   1.413       .  A
C1531      C1536   1.397       .  A
C1531      H1537   1.083       .  S
C1532      C1533   1.397       .  A
C1533      C1534   1.389       .  A
C1533      H1538   1.083       .  S
C1534      C1535   1.397       .  A
C1534      H1539   1.066       .  S
C1535      C1536   1.401       .  A
C1536      H1540   1.083       .  S
C1541      C1542   1.247       .  T
C1543      C1544   1.405       .  A
C1543      C1548   1.405       .  A
C1543      H1549   1.083       .  S
C1544      C1545   1.409       .  A
C1545      C1546   1.388       .  A
C1545      H1550   1.083       .  S
C1546      C1547   1.401       .  A
C1546      H1551   1.083       .  S
C1547      C1548   1.411       .  A
C1548      H1552   1.083       .  S
C1553      C1554   1.249       .  T
C1555      C1556   1.404       .  A
C1555      C1560   1.398       .  A
C1555      H1561   1.083       .  S
C1556      C1557   1.400       .  A
C1557      C1558   1.395       .  A
C1557      H1562   1.083       .  S
C1558      C1559   1.407       .  A
C1558      H1563   1.083       .  S
C1559      C1560   1.405       .  A
C1560      H1564   1.083       .  S
C1565      C1566   1.198       .  T
C1567      C1568   1.414   1_545  A
C1567      C1572   1.387       .  A
C1567      H1573   1.077       .  S
C1568      C1569   1.415   1_565  A
C1569      C1570   1.401       .  A
C1569      H1574   1.077   1_545  S
C1570      C1571   1.401       .  A
C1570      H1575   1.083       .  S
C1571      C1572   1.401       .  A
C1572      H1576   1.084       .  S
C1577      C1578   1.248       .  T
C1579      C1580   1.198       .  T
C1581      C1582   1.220       .  T
C1583      C1584   1.222       .  T
C1585      C1586   1.208       .  T
C1587      C1588   1.228       .  T
C1589      C1590   1.226       .  T
C1591      C1592   1.214       .  T
C1593      C1594   1.252       .  T
C1595      C1596   1.195       .  T
C1597      C1598   1.223       .  T
C1599      C1600   1.215       .  T
C1601      C1602   1.249       .  T
C1603      C1604   1.199       .  T
C1605      C1606   1.216       .  T
C1607      C1608   1.226       .  T
C1609      C1610   1.217       .  T
C1611      C1612   1.226       .  T
C1613      C1614   1.252       .  T
C1615      C1616   1.196       .  T
C1617      C1618   1.220       .  T
C1619      C1620   1.222       .  T
C1621      C1622   1.228       .  T
C1623      C1624   1.212       .  T
C1625      C1626   1.219       .  T
C1627      C1628   1.224       .  T
C1629      C1630   1.224       .  T
C1631      C1632   1.211       .  T
C1633      C1634   1.218       .  T
C1635      C1636   1.210       .  T
C1637      C1638   1.220       .  T
C1639      C1640   1.223       .  T
C1641      C1642   1.223       .  T
C1643      C1644   1.227       .  T
C1645      C1646   1.214       .  T
C1647      C1648   1.221       .  T
C1649      C1650   1.250       .  T
C1651      C1652   1.202       .  T
C1653      C1654   1.220       .  T
C1655      C1656   1.215       .  T
C1657      C1658   1.220       .  T
C1659      C1660   1.231       .  T
C1661      C1662   1.223       .  T
C1663      C1664   1.221       .  T
C1665      C1666   1.223       .  T
C1667      C1668   1.215       .  T
C1669      C1670   1.256       .  T
C1671      C1672   1.202       .  T
C1673      C1674   1.220       .  T
C1675      C1676   1.224       .  T
C1677      C1678   1.225       .  T
C1679      C1680   1.217       .  T
C1681      C1682   1.226       .  T
C1683      C1684   1.222       .  T
C1685      C1686   1.221       .  T
C1687      C1688   1.217       .  T
C1689      C1690   1.219       .  T
C1691      C1692   1.223       .  T
C1693      C1694   1.211       .  T
C1695      C1696   1.234       .  T
C1697      C1698   1.220       .  T
C1699      C1700   1.218       .  T
C1701      C1702   1.216       .  T
C1703      C1704   1.222       .  T
C1705      C1706   1.222       .  T
C1707      C1708   1.225       .  T
C1709      C1710   1.218       .  T
C1711      C1712   1.212       .  T
C1713      C1714   1.217       .  T
C1715      C1716   1.218       .  T
C1717      C1718   1.214       .  T
C1719      C1720   1.224       .  T
C1721      C1722   1.231       .  T
C1723      C1724   1.219       .  T
C1725      C1726   1.232       .  T
C1727      C1728   1.217       .  T
C1729      C1730   1.222       .  T
C1731      C1732   1.219       .  T
C1733      C1734   1.214       .  T
C1735      C1736   1.222       .  T
C1737      C1738   1.214       .  T
C1739      C1740   1.232       .  T
C1741      C1742   1.219       .  T
C1743      C1744   1.219       .  T
