geometry optimzed in LAMMPS
_audit_creation_date              2020-11-30 
_audit_creation_method            'lammps2cif' 
_symmetry_space_group_name_H-M    'P1' 
_symmetry_Int_Tables_number       1 
_symmetry_cell_setting            triclinic 
loop_ 
_symmetry_equiv_pos_as_xyz 
  x,y,z 
_cell_length_a                    38.276223708726796 
_cell_length_b                    38.28479594497015 
_cell_length_c                    48.97540911267932 
_cell_angle_alpha                 89.92193805316191 
_cell_angle_beta                  90.06346078083284 
_cell_angle_gamma                 120.06166365395458 
loop_ 
_atom_site_label 
_atom_site_type_symbol 
_atom_site_fract_x 
_atom_site_fract_y 
_atom_site_fract_z 
_atom_site_charge 
C1          C  0.28851126  0.50216266  0.70610877     0.02730
C2          C  0.32519706  0.01835513  0.69174403    -0.13420
C3          C  0.36069627  0.04941225  0.70275921     0.00230
C4          C  0.36051453  0.06641908  0.72758568    -0.11950
C5          C  0.32521101  0.05217741  0.74265651     0.02720
C6          C  0.28858735  0.01975002  0.73186893    -0.11370
H7          H  0.32734136  0.50491047  0.67282103     0.08310
H8          H  0.38894037  0.09035731  0.73557068     0.05840
H9          H  0.26116035  0.00735355  0.74382542     0.05690
C10         C  0.08912382  0.13608957  0.66204992     0.02730
C11         C  0.05337489  0.11969044  0.67753930    -0.13420
C12         C  0.01698879  0.08934250  0.66695618     0.00230
C13         C  0.01536358  0.07300269  0.64148632    -0.11950
C14         C  0.04972085  0.08726265  0.62546336     0.02720
C15         C  0.08714047  0.11914094  0.63574491    -0.11370
H16         H  0.05256798  0.13270781  0.69699694     0.08310
H17         H  0.48637860  0.04963204  0.63382397     0.05840
H18         H  0.11378255  0.13173155  0.62296149     0.05690
C19         C  0.27632238  0.47396722  0.82500443     0.02730
C20         C  0.30072465  0.46052999  0.83731633    -0.13420
C21         C  0.30490745  0.42969024  0.82567531     0.00230
C22         C  0.28227507  0.40910463  0.80324661    -0.11950
C23         C  0.25982555  0.42259232  0.78915631     0.02720
C24         C  0.25613982  0.45506895  0.80018324    -0.11370
H25         H  0.31912249  0.47586605  0.85497650     0.08310
H26         H  0.28422854  0.38340017  0.79590873     0.05840
H27         H  0.23921113  0.46629329  0.78919264     0.05690
C28         C  0.44129882  0.33844144  0.87113734     0.02730
C29         C  0.42018232  0.35406770  0.85676638    -0.13420
C30         C  0.41667325  0.38596987  0.86734698     0.00230
C31         C  0.43753377  0.40583445  0.89055233    -0.11950
C32         C  0.45569748  0.38979407  0.90670362     0.02720
C33         C  0.45857919  0.35625888  0.89683771    -0.11370
H34         H  0.40318065  0.33932614  0.83850691     0.08310
H35         H  0.43625537  0.43217441  0.89729288     0.05840
H36         H  0.47234343  0.34320783  0.90947451     0.05690
C37         C  0.44038757  0.30698838  0.49250473     0.02730
C38         C  0.46036477  0.29046153  0.50712239    -0.13420
C39         C  0.46519168  0.25988576  0.49591353     0.00230
C40         C  0.44841103  0.24311592  0.47100554    -0.11950
C41         C  0.42774413  0.25763654  0.45582071     0.02720
C42         C  0.42338515  0.28986174  0.46658566    -0.11370
H43         H  0.47540886  0.30340138  0.52630979     0.08310
H44         H  0.45263707  0.21895266  0.46321675     0.05840
H45         H  0.40849931  0.30235001  0.45456650     0.05690
C46         C  0.10380654  0.17005345  0.53894763     0.02730
C47         C  0.12079435  0.18801523  0.56465698    -0.13420
C48         C  0.11310083  0.21783352  0.57603754     0.00230
C49         C  0.08808328  0.22821173  0.56205334    -0.11950
C50         C  0.07124326  0.21047764  0.53738574     0.02720
C51         C  0.08015742  0.18318101  0.52520693    -0.11370
H52         H  0.13840526  0.17795712  0.57604460     0.08310
H53         H  0.08111412  0.25030766  0.57031445     0.05840
H54         H  0.06539388  0.16973397  0.50603711     0.05690
C55         C  0.42321475  0.30423144  0.99418070     0.02730
C56         C  0.38654711  0.29016749  0.00834263    -0.13420
C57         C  0.35024684  0.26140365  0.99678178     0.00230
C58         C  0.34941000  0.24306438  0.97238909    -0.11950
C59         C  0.38446344  0.25521604  0.95757220     0.02720
C60         C  0.42196237  0.28629189  0.96838658    -0.11370
H61         H  0.38522138  0.30402728  0.02729633     0.08310
H62         H  0.32045582  0.21979753  0.96460481     0.05840
H63         H  0.44931551  0.29733932  0.95647674     0.05690
C64         C  0.12224659  0.16876692  0.03986544     0.02730
C65         C  0.15934125  0.18416739  0.02610205    -0.13420
C66         C  0.19466226  0.21460384  0.03762217     0.00230
C67         C  0.19399170  0.23293506  0.06162945    -0.11950
C68         C  0.15846799  0.21921952  0.07625873     0.02720
C69         C  0.12190605  0.18677118  0.06537232    -0.11370
H70         H  0.16187742  0.17036840  0.00746574     0.08310
H71         H  0.22229825  0.25741357  0.06936420     0.05840
H72         H  0.09421482  0.17480481  0.07699785     0.05690
C73         C  0.45559294  0.33658223  0.37335990     0.02730
C74         C  0.49286577  0.35253896  0.35970063    -0.13420
C75         C  0.02773847  0.38439514  0.37083303     0.00230
C76         C  0.02594349  0.40346587  0.39416873    -0.11950
C77         C  0.49071277  0.38778937  0.40932732     0.02720
C78         C  0.45474927  0.35437504  0.39877765    -0.11370
H79         H  0.49587899  0.33836253  0.34141502     0.08310
H80         H  0.05346414  0.42952997  0.40142697     0.05840
H81         H  0.42716880  0.34159111  0.41057980     0.05690
C82         C  0.21862298  0.42214965  0.29103769     0.02730
C83         C  0.18325888  0.40978750  0.30549403    -0.13420
C84         C  0.18301196  0.42982995  0.32876219     0.00230
C85         C  0.21893166  0.45917238  0.34048820    -0.11950
C86         C  0.25611928  0.47234510  0.32730541     0.02720
C87         C  0.25573384  0.45373921  0.30195016    -0.11370
H88         H  0.15475874  0.38536190  0.29798822     0.08310
H89         H  0.21701318  0.47401640  0.35878046     0.05840
H90         H  0.28343387  0.46456044  0.29048444     0.05690
C91         C  0.11416253  0.14292713  0.15666204     0.02730
C92         C  0.14150776  0.13124335  0.16666599    -0.13420
C93         C  0.14309919  0.09814286  0.15548933     0.00230
C94         C  0.11169720  0.07294260  0.13839650    -0.11950
C95         C  0.09118092  0.08774930  0.12350466     0.02720
C96         C  0.09097317  0.12258248  0.13317504    -0.11370
H97         H  0.16213649  0.14877753  0.18275410     0.08310
H98         H  0.10447937  0.04241273  0.13484305     0.05840
H99         H  0.07393893  0.13392878  0.12245375     0.05690
C100        C  0.27835483  0.50685727  0.20473943     0.02730
C101        C  0.26495425  0.02699104  0.18744093    -0.13420
C102        C  0.25483347  0.05471133  0.19788820     0.00230
C103        C  0.26128029  0.06527693  0.22537696    -0.11950
C104        C  0.28098642  0.05152272  0.24222035     0.02720
C105        C  0.28854819  0.02093655  0.23214826    -0.11370
H106        H  0.25899097  0.51860845  0.16612284     0.08310
H107        H  0.25206518  0.08574619  0.23346842     0.05840
H108        H  0.30070841  0.00733066  0.24573273     0.05690
C109        C  0.03648712  0.25423876  0.82622083     0.02730
C110        C  0.05435391  0.25369920  0.80075929    -0.13420
C111        C  0.08703641  0.29001047  0.78995072     0.00230
C112        C  0.10186425  0.32535843  0.80489685    -0.11950
C113        C  0.08353345  0.32654335  0.82884503     0.02720
C114        C  0.05191447  0.29140601  0.83986709    -0.11370
H115        H  0.04199353  0.22607621  0.78903520     0.08310
H116        H  0.12707558  0.35325698  0.79727385     0.05840
H117        H  0.03734211  0.29412001  0.85804265     0.05690
C118        C  0.17145781  0.05536814  0.87097314     0.02730
C119        C  0.15638815  0.01872062  0.85667502    -0.13420
C120        C  0.12541190  0.48285754  0.86747425     0.00230
C121        C  0.10706347  0.48285063  0.89176099    -0.11950
C122        C  0.12160993  0.01756365  0.90730831     0.02720
C123        C  0.15380687  0.05452275  0.89679735    -0.11370
H124        H  0.17106637  0.01694690  0.83825874     0.08310
H125        H  0.08232090  0.45451060  0.89923349     0.05840
H126        H  0.16609904  0.08164557  0.90906689     0.05690
C127        C  0.37171707  0.40563587  0.66139617     0.02730
C128        C  0.38702634  0.38480841  0.67637269    -0.13420
C129        C  0.41630882  0.37769618  0.66526762     0.00230
C130        C  0.43327775  0.39330734  0.64011034    -0.11950
C131        C  0.42028142  0.41509517  0.62469932     0.02720
C132        C  0.38904795  0.42131880  0.63529191    -0.11370
H133        H  0.37381216  0.37060782  0.69572841     0.08310
H134        H  0.45626102  0.38728639  0.63229413     0.05840
H135        H  0.37730597  0.43659199  0.62292868     0.05690
C136        C  0.00661561  0.23940182  0.70641598     0.02730
C137        C  0.99075652  0.26034519  0.69219099    -0.13420
C138        C  0.46043021  0.26552078  0.70356930     0.00230
C139        C  0.44319645  0.24799143  0.72824181    -0.11950
C140        C  0.45713518  0.22644688  0.74308407     0.02720
C141        C  0.48914413  0.22186482  0.73215521    -0.11370
H142        H  0.00410097  0.27591606  0.67321711     0.08310
H143        H  0.41935854  0.25256169  0.73625284     0.05840
H144        H  0.00130233  0.20648114  0.74397566     0.05690
C145        C  0.20306444  0.08806367  0.49327834     0.02730
C146        C  0.22069175  0.08816133  0.46750777    -0.13420
C147        C  0.25321304  0.12479059  0.45672950     0.00230
C148        C  0.26742666  0.16007357  0.47179076    -0.11950
C149        C  0.25005174  0.16021161  0.49643171     0.02720
C150        C  0.21938653  0.12469044  0.50767516    -0.11370
H151        H  0.20826927  0.06075586  0.45555142     0.08310
H152        H  0.29146366  0.18852394  0.46389611     0.05840
H153        H  0.20600189  0.12687543  0.52661860     0.05690
C154        C  0.33688111  0.38878515  0.53771187     0.02730
C155        C  0.31958881  0.38690284  0.56387272    -0.13420
C156        C  0.28825639  0.34931410  0.57438874     0.00230
C157        C  0.27518422  0.31467127  0.55887511    -0.11950
C158        C  0.29217157  0.31626443  0.53371378     0.02720
C159        C  0.32142231  0.35276925  0.52263668    -0.11370
H160        H  0.33144906  0.41380491  0.57633942     0.08310
H161        H  0.25223388  0.28555981  0.56665779     0.05840
H162        H  0.33462813  0.35190302  0.50326949     0.05690
C163        C  0.20717169  0.07420144  0.99544553     0.02730
C164        C  0.22439474  0.05588082  0.01121884    -0.13420
C165        C  0.25503934  0.05024537  0.00070409     0.00230
C166        C  0.27067516  0.06428324  0.97494941    -0.11950
C167        C  0.25565818  0.08343655  0.95867118     0.02720
C168        C  0.22362030  0.08865147  0.96892653    -0.11370
H169        H  0.21180938  0.04251892  0.03088470     0.08310
H170        H  0.29414609  0.05889705  0.96726745     0.05840
H171        H  0.21051285  0.10202020  0.95596506     0.05690
C172        C  0.34156572  0.40753551  0.03939403     0.02730
C173        C  0.32398308  0.38992967  0.06514159    -0.13420
C174        C  0.29265717  0.39537641  0.07642446     0.00230
C175        C  0.27963568  0.41795971  0.06191606    -0.11950
C176        C  0.29632283  0.43491438  0.03694549     0.02720
C177        C  0.32638397  0.42932869  0.02545958    -0.11370
H178        H  0.33553115  0.37374508  0.07668401     0.08310
H179        H  0.25653107  0.42336911  0.07028201     0.05840
H180        H  0.33976615  0.44476677  0.00645447     0.05690
C181        C  0.17303967  0.07306471  0.37318097     0.02730
C182        C  0.15565526  0.09188637  0.35817331    -0.13420
C183        C  0.12467272  0.09647812  0.36912299     0.00230
C184        C  0.10893898  0.08093349  0.39456037    -0.11950
C185        C  0.12373368  0.06067873  0.40995574     0.02720
C186        C  0.15614939  0.05650655  0.39926773    -0.11370
H187        H  0.16817828  0.10622548  0.33872616     0.08310
H188        H  0.08526623  0.08570613  0.40262461     0.05840
H189        H  0.16904364  0.04221936  0.41150902     0.05690
C190        C  0.03858209  0.23891406  0.32715480     0.02730
C191        C  0.05582375  0.25459769  0.30098971    -0.13420
C192        C  0.08648624  0.24768588  0.29010102     0.00230
C193        C  0.09868440  0.22499394  0.30517239    -0.11950
C194        C  0.08272867  0.21035300  0.33072506     0.02720
C195        C  0.05369778  0.21776127  0.34196006    -0.11370
H196        H  0.04453761  0.27050728  0.28886546     0.08310
H197        H  0.12092994  0.21817165  0.29700300     0.05840
H198        H  0.04088221  0.20402979  0.36149971     0.05690
C199        C  0.45533358  0.18470589  0.24095446     0.02730
C200        C  0.44230340  0.14966077  0.22597735    -0.13420
C201        C  0.46183955  0.14970960  0.20232005     0.00230
C202        C  0.49168502  0.18570587  0.19096086    -0.11950
C203        C  0.00580813  0.22260363  0.20478746     0.02720
C204        C  0.48740608  0.22184226  0.23034870    -0.11370
H205        H  0.41779822  0.12112544  0.23338309     0.08310
H206        H  0.00621150  0.18394441  0.17245262     0.05840
H207        H  0.99884744  0.24922042  0.24226289     0.05690
C208        C  0.37049774  0.42184879  0.15892225     0.02730
C209        C  0.38550399  0.45936502  0.17205281    -0.13420
C210        C  0.41615018  0.49443516  0.16029062     0.00230
C211        C  0.43507922  0.49279186  0.13684006    -0.11950
C212        C  0.42081179  0.45697143  0.12247883     0.02720
C213        C  0.38839601  0.42081012  0.13360200    -0.11370
H214        H  0.37135438  0.46230368  0.19038445     0.08310
H215        H  0.46022469  0.02065330  0.12911569     0.05840
H216        H  0.37632767  0.39287837  0.12225545     0.05690
C217        C  0.27017120  0.25411071  0.32828358     0.02730
C218        C  0.29000357  0.29013565  0.34347622    -0.13420
C219        C  0.29658383  0.32650513  0.33247202     0.00230
C220        C  0.28224348  0.32778698  0.30677828    -0.11950
C221        C  0.26123818  0.29307957  0.29122488     0.02720
C222        C  0.25507897  0.25571392  0.30193629    -0.11370
H223        H  0.30351913  0.29103703  0.36310359     0.08310
H224        H  0.28843068  0.35674051  0.29870281     0.05840
H225        H  0.24033536  0.22876151  0.28949491     0.05690
C226        C  0.43634704  0.05514813  0.37284942     0.02730
C227        C  0.41644388  0.01858799  0.35830102    -0.13420
C228        C  0.41152671  0.48300515  0.36953607     0.00230
C229        C  0.42767254  0.48312997  0.39481441    -0.11950
C230        C  0.44879678  0.01846546  0.40981993     0.02720
C231        C  0.45335761  0.05507664  0.39882994    -0.11370
H232        H  0.40167749  0.01661750  0.33900900     0.08310
H233        H  0.42265790  0.45467442  0.40308001     0.05840
H234        H  0.46832672  0.08251671  0.41076344     0.05690
C235        C  0.26827146  0.22024683  0.70717352     0.02730
C236        C  0.28749949  0.22128772  0.73242454    -0.13420
C237        C  0.28457524  0.18523547  0.74315042     0.00230
C238        C  0.26394822  0.14976465  0.72837318    -0.11950
C239        C  0.24268596  0.14795911  0.70525233     0.02720
C240        C  0.24610083  0.18281550  0.69388926    -0.11370
H241        H  0.30299627  0.24906467  0.74396838     0.08310
H242        H  0.26215767  0.12212743  0.73568445     0.05840
H243        H  0.22860668  0.17971324  0.67571141     0.05690
C244        C  0.10409221  0.41991688  0.66073633     0.02730
C245        C  0.08643900  0.42067521  0.63519952    -0.13420
C246        C  0.09160255  0.45781265  0.62466109     0.00230
C247        C  0.11345003  0.49277495  0.63970936    -0.11950
C248        C  0.13332951  0.49278202  0.66317115     0.02720
C249        C  0.12718688  0.45680907  0.67450701    -0.11370
H250        H  0.07041904  0.39331448  0.62326577     0.08310
H251        H  0.11719472  0.02124525  0.63243281     0.05840
H252        H  0.14365433  0.45856480  0.69295119     0.05690
C253        C  0.42100281  0.06899677  0.49264142     0.02730
C254        C  0.38346704  0.04661714  0.50579938    -0.13420
C255        C  0.34856288  0.04298297  0.49429714     0.00230
C256        C  0.35048681  0.06442979  0.47122711    -0.11950
C257        C  0.38602819  0.08508319  0.45648753     0.02720
C258        C  0.42208085  0.08814495  0.46733739    -0.11370
H259        H  0.38033427  0.02902610  0.52393229     0.08310
H260        H  0.32286222  0.06259010  0.46383585     0.05840
H261        H  0.44988940  0.10361228  0.45580608     0.05690
C262        C  0.12022275  0.40356289  0.53825576     0.02730
C263        C  0.12082884  0.38577464  0.56379786    -0.13420
C264        C  0.15777367  0.39023115  0.57419527     0.00230
C265        C  0.19264125  0.41125137  0.55890036    -0.11950
C266        C  0.19303274  0.43172567  0.53563296     0.02720
C267        C  0.15720579  0.42637998  0.52447212    -0.11370
H268        H  0.09353800  0.37025022  0.57586730     0.08310
H269        H  0.22088770  0.41427023  0.56602728     0.05840
H270        H  0.15917646  0.44324031  0.50618662     0.05690
C271        C  0.28865559  0.23928407  0.20538667     0.02730
C272        C  0.32528023  0.26127348  0.19115405    -0.13420
C273        C  0.36134124  0.26788905  0.20259556     0.00230
C274        C  0.36178526  0.25097852  0.22739805    -0.11950
C275        C  0.32676442  0.22931179  0.24247913     0.02720
C276        C  0.28963964  0.22352647  0.23162204    -0.11370
H277        H  0.32672859  0.27633743  0.17209131     0.08310
H278        H  0.39043624  0.25576856  0.23514554     0.05840
H279        H  0.26224078  0.20766552  0.24354723     0.05690
C280        C  0.08954645  0.40262230  0.15918245     0.02730
C281        C  0.05273302  0.38177104  0.17335718    -0.13420
C282        C  0.01739766  0.37735536  0.16213929     0.00230
C283        C  0.01790059  0.39529583  0.13761821    -0.11950
C284        C  0.05304241  0.41571390  0.12247449     0.02720
C285        C  0.08958385  0.41990550  0.13330541    -0.11370
H286        H  0.05038695  0.36582651  0.19217878     0.08310
H287        H  0.98972323  0.39186077  0.12994758     0.05840
H288        H  0.11701247  0.43479243  0.12135256     0.05690
C289        C  0.43888558  0.08663507  0.99395840     0.02730
C290        C  0.46254102  0.12350105  0.00769564    -0.13420
C291        C  0.46819295  0.15966197  0.99692710     0.00230
C292        C  0.44895661  0.15986067  0.97307843    -0.11950
C293        C  0.42665081  0.12487248  0.95804975     0.02720
C294        C  0.42107194  0.08760222  0.96858044    -0.11370
H295        H  0.47966673  0.12501937  0.02572226     0.08310
H296        H  0.45311530  0.18841481  0.96564588     0.05840
H297        H  0.40460211  0.06022425  0.95672030     0.05690
C298        C  0.10496408  0.38838254  0.03932531     0.02730
C299        C  0.12311753  0.38900987  0.06491743    -0.13420
C300        C  0.12051560  0.35306003  0.07542630     0.00230
C301        C  0.10159202  0.31805584  0.05996750    -0.11950
C302        C  0.08201672  0.31654234  0.03592261     0.02720
C303        C  0.08439086  0.35139646  0.02524147    -0.11370
H304        H  0.13737818  0.41637411  0.07696012     0.08310
H305        H  0.09988342  0.29050964  0.06739484     0.05840
H306        H  0.06711324  0.34851779  0.00700205     0.05690
C307        C  0.25509338  0.23491392  0.82571868     0.02730
C308        C  0.21778767  0.21309685  0.83924103    -0.13420
C309        C  0.18285019  0.20957983  0.82793576     0.00230
C310        C  0.18443528  0.23039364  0.80460989    -0.11950
C311        C  0.21974263  0.25066863  0.78961765     0.02720
C312        C  0.25588390  0.25369333  0.80029520    -0.11370
H313        H  0.21481014  0.19585559  0.85753177     0.08310
H314        H  0.15671076  0.22840224  0.79728076     0.05840
H315        H  0.28353079  0.26888962  0.78857633     0.05690
C316        C  0.45449946  0.07014575  0.87170446     0.02730
C317        C  0.49142568  0.09345235  0.85798784    -0.13420
C318        C  0.02745486  0.09990573  0.86943321     0.00230
C319        C  0.02756746  0.08020133  0.89295141    -0.11950
C320        C  0.49254789  0.05800035  0.90786937     0.02720
C321        C  0.45532131  0.05252762  0.89724469    -0.11370
H322        H  0.49314564  0.10988301  0.83953016     0.08310
H323        H  0.05613100  0.08431008  0.90034931     0.05840
H324        H  0.42791800  0.03629857  0.90912736     0.05690
O325        O  0.36455916  0.09078258  0.78090870    -0.86890
O326        O  0.23243199  0.11852266  0.87862431    -0.87060
O327        O  0.27157909  0.03377086  0.81952545    -0.88720
O328        O  0.28391624  0.14614076  0.78125893    -0.87480
O329        O  0.33341718  0.21280194  0.77826598    -0.87070
O330        O  0.29873797  0.02520337  0.85901489    -0.88440
O331        O  0.22452716  0.08512514  0.83819301    -0.86920
O332        O  0.29793821  0.07372501  0.77795784    -0.86510
Zr333      Zr  0.29126966  0.10542564  0.81835094     2.84310
O334        O  0.30691971  0.16856080  0.83419508    -1.08480
O335        O  0.34085855  0.09124298  0.83430166    -1.09210
C336        C  0.32904876  0.07276551  0.76918192     1.06220
C337        C  0.21115262  0.08983154  0.86151923     1.06160
C338        C  0.28073654  0.01271273  0.83556351     1.09140
C339        C  0.30142076  0.18165620  0.76954735     1.06920
H340        H  0.26810840  0.08087977  0.87336834     0.32480
O341        O  0.29227675  0.10354918  0.86624907    -1.29430
H342        H  0.35554588  0.15439586  0.78324022     0.32150
O343        O  0.35547798  0.15431742  0.80295230    -1.31110
O344        O  0.34399288  0.21484254  0.92002547    -0.86880
O345        O  0.47590656  0.19028475  0.82009223    -0.88380
O346        O  0.29451301  0.08155112  0.92059953    -0.86960
O347        O  0.31909043  0.23832264  0.81987794    -0.87010
O348        O  0.41890622  0.22710318  0.78132859    -0.86720
O349        O  0.39080092  0.06688440  0.87907787    -0.86530
O350        O  0.42698536  0.16523312  0.92035881    -0.86900
O351        O  0.44264840  0.27694438  0.87891366    -0.86360
O352        O  0.37949368  0.09771873  0.92219696    -0.87430
O353        O  0.41709824  0.28512045  0.83856782    -0.86580
O354        O  0.27449920  0.12902545  0.92197270    -0.86980
O355        O  0.42403158  0.09207392  0.83851217    -0.86700
O356        O  0.43570541  0.17742972  0.77820851    -0.86350
O357        O  0.28301231  0.21042725  0.85908402    -0.86760
O358        O  0.41148425  0.23485576  0.92196849    -0.87060
O359        O  0.48406137  0.22594259  0.85947814    -0.88400
Zr360      Zr  0.30523004  0.16742246  0.88178659     2.83100
Zr361      Zr  0.40407281  0.13870385  0.81847399     2.83500
Zr362      Zr  0.34150253  0.09032003  0.88192902     2.84090
Zr363      Zr  0.37092993  0.21845712  0.81864133     2.83360
Zr364      Zr  0.41876494  0.20399219  0.88191269     2.84220
O365        O  0.41842308  0.20265747  0.83430894    -1.08970
O366        O  0.35516770  0.15389113  0.89700334    -1.08470
C367        C  0.37989666  0.23414520  0.93126696     1.06190
C368        C  0.49695189  0.22031282  0.83626164     1.08810
C369        C  0.27546434  0.09845327  0.93171203     1.06360
C370        C  0.28887431  0.22915497  0.83589225     1.06720
C371        C  0.43672714  0.20958480  0.76954721     1.06310
C372        C  0.41954470  0.07437282  0.86200433     1.05860
C373        C  0.41025461  0.12935517  0.93163243     1.06280
C374        C  0.43533709  0.29840312  0.86185467     1.05800
H375        H  0.42813740  0.14007263  0.87352811     0.32480
O376        O  0.40544852  0.14146998  0.86637078    -1.30070
H377        H  0.36934621  0.24112116  0.87352974     0.32500
O378        O  0.36783660  0.21697744  0.86643348    -1.31450
O379        O  0.45313737  0.42781916  0.94481625    -0.86890
O380        O  0.10679852  0.45153205  0.04585909    -0.87060
O381        O  0.08299144  0.47724655  0.94546307    -0.88720
O382        O  0.48705670  0.36488327  0.98681599    -0.87480
O383        O  0.45388265  0.35636192  0.02740606    -0.87070
O384        O  0.10306215  0.04475984  0.94375855    -0.88440
O385        O  0.08041327  0.41634649  0.00614749    -0.86920
O386        O  0.50043013  0.40754142  0.94357801    -0.86510
Zr387      Zr  0.03659959  0.43785645  0.98412118     2.84310
O388        O  0.03711732  0.43907694  0.03167684    -1.08480
O389        O  0.02285035  0.48765018  0.96899702    -1.09210
C390        C  0.47032006  0.40903440  0.93366863     1.06220
C391        C  0.09857565  0.42188751  0.02949973     1.06160
C392        C  0.10188485  0.51313308  0.93414669     1.09140
C393        C  0.45832248  0.34335897  0.00388269     1.06920
H394        H  0.10989067  0.50215808  0.99257889     0.32480
O395        O  0.08565832  0.50050267  0.99965444    -1.29430
H396        H  0.44961539  0.40018322  0.99194159     0.32150
O397        O  0.47223130  0.42423195  0.99922707    -1.31110
O398        O  0.09187270  0.04939993  0.08544878    -0.86880
O399        O  0.43560978  0.02292681  0.98638300    -0.88380
O400        O  0.14547886  0.07515174  0.98737758    -0.86960
O401        O  0.51348099  0.41470384  0.08439322    -0.87010
O402        O  0.40183260  0.40352945  0.04552762    -0.86720
O403        O  0.03292459  0.05855513  0.94563797    -0.86530
O404        O  0.05843048  0.10773891  0.04598351    -0.86900
O405        O  0.45861330  0.99544422  0.08411150    -0.86360
O406        O  0.09383415  0.11661841  0.00638301    -0.87430
O407        O  0.44205396  0.42904445  0.08755557    -0.86580
O408        O  0.15348168  0.04990323  0.02792625    -0.86980
O409        O  0.46545028  0.01087697  0.94356363    -0.86700
O410        O  0.39330795  0.42985714  0.00565511    -0.86350
O411        O  0.08014366  0.46413323  0.08719486    -0.86760
O412        O  0.04244154  0.06662361  0.08815671    -0.87060
O413        O  0.45961465  0.05539645  0.02728337    -0.88400
Zr414      Zr  0.08650392  0.50311963  0.04747665     2.83100
Zr415      Zr  0.45898905  0.47346958  0.98369676     2.83500
Zr416      Zr  0.07250387  0.05132683  0.98412986     2.84090
Zr417      Zr  0.47356606  0.42288526  0.04708867     2.83360
Zr418      Zr  0.00653789  0.03580385  0.04707041     2.84220
O419        O  0.45924270  0.47248167  0.03126879    -1.08970
O420        O  0.07090995  0.05075891  0.03174089    -1.08470
C421        C  0.07406668  0.06705289  0.09721158     1.06190
C422        C  0.44263534  0.05138841  0.00359497     1.08810
C423        C  0.16694319  0.06810327  0.00461118     1.06360
C424        C  0.04907134  0.43216107  0.09598127     1.06720
C425        C  0.38066540  0.41217392  0.02918104     1.06310
C426        C  0.99705465  0.04172512  0.93426754     1.05860
C427        C  0.08828869  0.12919392  0.02975763     1.06280
C428        C  0.44100085  0.46017028  0.09606712     1.05800
H429        H  0.00834315  0.06029699  0.99220270     0.32480
O430        O  0.00972393  0.03757602  0.99930225    -1.30070
H431        H  0.02182373  0.48683612  0.08232982     0.32500
O432        O  0.02206035  0.48712099  0.06262211    -1.31450
O433        O  0.42844202  0.21919561  0.41768737    -0.86890
O434        O  0.26763558  0.19076902  0.32068537    -0.87060
O435        O  0.39153532  0.27585484  0.37928726    -0.88720
O436        O  0.29195986  0.16427068  0.41851594    -0.87480
O437        O  0.27456577  0.09756239  0.42129708    -0.87070
O438        O  0.42786801  0.28397834  0.34024059    -0.88440
O439        O  0.29345409  0.22433179  0.36104785    -0.86920
O440        O  0.37870419  0.23593570  0.42085688    -0.86510
Zr441      Zr  0.33978287  0.20392528  0.38087033     2.84310
O442        O  0.29201382  0.14072771  0.36506009    -1.08480
O443        O  0.40376974  0.21833739  0.36501893    -1.09210
C444        C  0.41095805  0.23711624  0.42941785     1.06220
C445        C  0.27524383  0.21956275  0.33775213     1.06160
C446        C  0.42187062  0.29690742  0.36330724     1.09140
C447        C  0.27379194  0.12870073  0.43017669     1.06920
H448        H  0.34101902  0.22805474  0.32607237     0.32480
O449        O  0.34252994  0.20534087  0.33303583    -1.29430
H450        H  0.35551816  0.15544114  0.41598658     0.32150
O451        O  0.35538342  0.15530759  0.39627514    -1.31110
O452        O  0.28023968  0.09279123  0.27933133    -0.86880
O453        O  0.43941205  0.11894890  0.37905263    -0.88380
O454        O  0.36670502  0.22869226  0.27985736    -0.86960
O455        O  0.23431084  0.07072144  0.37952419    -0.87010
O456        O  0.34701361  0.08404465  0.41818521    -0.86720
O457        O  0.47801895  0.24218422  0.31987421    -0.86530
O458        O  0.41519031  0.14428439  0.27867616    -0.86900
O459        O  0.31995334  0.03259924  0.32027094    -0.86360
O460        O  0.43553828  0.21184523  0.27694538    -0.87430
O461        O  0.28643663  0.02450643  0.36070748    -0.86580
O462        O  0.29927633  0.18097568  0.27762919    -0.86980
O463        O  0.48622481  0.21703101  0.36037701    -0.86700
O464        O  0.41372898  0.13350511  0.42108319    -0.86350
O465        O  0.22617777  0.09879449  0.34037206    -0.86760
O466        O  0.32767833  0.07269576  0.27824359    -0.87060
O467        O  0.41157510  0.08320083  0.33973971    -0.88400
Zr468      Zr  0.29119496  0.14157302  0.31737791     2.83100
Zr469      Zr  0.41956807  0.17081309  0.38052737     2.83500
Zr470      Zr  0.40517250  0.21884055  0.31744503     2.84090
Zr471      Zr  0.30633799  0.09111511  0.38089610     2.83360
Zr472      Zr  0.36836003  0.10540846  0.31727339     2.84220
O473        O  0.36952104  0.10685375  0.36491076    -1.08970
O474        O  0.35484136  0.15537862  0.30202937    -1.08470
C475        C  0.29657636  0.07287329  0.26870697     1.06190
C476        C  0.43038509  0.08892732  0.36288466     1.08810
C477        C  0.33088926  0.21225517  0.26862544     1.06360
C478        C  0.21312851  0.07967185  0.36340939     1.06720
C479        C  0.38251963  0.10164690  0.42992547     1.06310
C480        C  0.49938900  0.23470300  0.33688308     1.05860
C481        C  0.43451205  0.18021696  0.26743085     1.06280
C482        C  0.29107471  0.01134373  0.33724488     1.05800
H483        H  0.44199936  0.16906157  0.32550506     0.32480
O484        O  0.41800795  0.16777100  0.33271891    -1.30070
H485        H  0.28200283  0.06835735  0.32609805     0.32500
O486        O  0.30470047  0.09259247  0.33308327    -1.31450
O487        O  0.22467937  0.44121346  0.71250669    -0.86890
O488        O  0.24840709  0.30859236  0.61214481    -0.87060
O489        O  0.31071042  0.40780352  0.65345834    -0.88720
O490        O  0.19831203  0.39132320  0.61202315    -0.87480
O491        O  0.13075647  0.34383278  0.61045587    -0.87070
O492        O  0.31884494  0.38305115  0.69416334    -0.88440
O493        O  0.26845350  0.37611793  0.61042253    -0.86920
O494        O  0.26005314  0.44940417  0.67296273    -0.86510
Zr495      Zr  0.23778117  0.38396507  0.65047466     2.84310
O496        O  0.18757384  0.32033301  0.63557743    -1.08480
O497        O  0.23641670  0.38368705  0.69807850    -1.09210
C498        C  0.25457376  0.46236319  0.69622051     1.06220
C499        C  0.26763086  0.34454156  0.60095809     1.06160
C500        C  0.33211674  0.40073762  0.67071298     1.09140
C501        C  0.16233657  0.37440322  0.60082018     1.06920
H502        H  0.27497727  0.33461337  0.65892155     0.32480
O503        O  0.25077988  0.33304832  0.66598846    -1.29430
H504        H  0.17403837  0.39357660  0.65898139     0.32150
O505        O  0.17540973  0.37090496  0.66619434    -1.31110
O506        O  0.15205961  0.19746374  0.65394087    -0.86880
O507        O  0.12489499  0.32909781  0.75154408    -0.88380
O508        O  0.27199707  0.28440288  0.71277374    -0.86960
O509        O  0.11438052  0.25895674  0.61326043    -0.87010
O510        O  0.10075706  0.35615814  0.65353066    -0.86720
O511        O  0.25966347  0.38401336  0.75100079    -0.86530
O512        O  0.18036585  0.24947421  0.75143159    -0.86900
O513        O  0.06744209  0.23643213  0.71280069    -0.86360
O514        O  0.24700039  0.29914905  0.75426476    -0.87430
O515        O  0.05899120  0.26348906  0.67327019    -0.86580
O516        O  0.24383457  0.24803073  0.67372400    -0.86980
O517        O  0.21014838  0.40096412  0.75446306    -0.86700
O518        O  0.12619891  0.38963025  0.69393684    -0.86350
O519        O  0.16193359  0.23919594  0.61091223    -0.86760
O520        O  0.11899133  0.18961958  0.69451113    -0.87060
O521        O  0.10801644  0.26253864  0.75470007    -0.88400
Zr522      Zr  0.20119784  0.27037279  0.65067223     2.83100
Zr523      Zr  0.17252356  0.36938153  0.71402874     2.83500
Zr524      Zr  0.25218894  0.33627336  0.71379440     2.84090
Zr525      Zr  0.12421532  0.30691384  0.65102767     2.83360
Zr526      Zr  0.13935207  0.25642282  0.71423419     2.84220
O527        O  0.12475493  0.30599952  0.69861377    -1.08970
O528        O  0.20244266  0.27222980  0.69825288    -1.08470
C529        C  0.12355002  0.17612968  0.67119315     1.06190
C530        C  0.10715360  0.29366347  0.76339488     1.08810
C531        C  0.26260318  0.25400681  0.69690409     1.06360
C532        C  0.13066578  0.23955309  0.60195963     1.06720
C533        C  0.10843405  0.38506056  0.67047051     1.06310
C534        C  0.24227646  0.40186664  0.76295530     1.05860
C535        C  0.21594426  0.26716305  0.76310125     1.06280
C536        C  0.04620048  0.24507553  0.69652353     1.05800
H537        H  0.18826333  0.32079618  0.74921338     0.32480
O538        O  0.18811919  0.32074418  0.72950324    -1.30070
H539        H  0.11473587  0.23334836  0.65953398     0.32500
O540        O  0.13749164  0.25760613  0.66645157    -1.31450
O541        O  0.19782059  0.25843190  0.11422898    -0.86890
O542        O  0.06665421  0.28624229  0.21209290    -0.87060
O543        O  0.10763837  0.20196500  0.15228696    -0.88720
O544        O  0.11846000  0.31380261  0.11388774    -0.87480
O545        O  0.16808598  0.38052482  0.11129049    -0.87070
O546        O  0.13562763  0.19323555  0.19130338    -0.88440
O547        O  0.05856426  0.25274397  0.17167489    -0.86920
O548        O  0.13117709  0.24126396  0.11115545    -0.86510
Zr549      Zr  0.12534217  0.27335934  0.15144093     2.84310
O550        O  0.14140463  0.33659271  0.16739248    -1.08480
O551        O  0.17512382  0.25957605  0.16735045    -1.09210
C552        C  0.16228188  0.24024455  0.10251585     1.06220
C553        C  0.04528618  0.25740148  0.19508836     1.06160
C554        C  0.11775009  0.18107136  0.16781249     1.09140
C555        C  0.13633288  0.34936490  0.10224087     1.06920
H556        H  0.10235004  0.24851587  0.20624611     0.32480
O557        O  0.12652071  0.27130585  0.19926280    -1.29430
H558        H  0.18989128  0.32256023  0.11639147     0.32150
O559        O  0.18970570  0.32239394  0.13610324    -1.31110
O560        O  0.17859221  0.38200346  0.25337262    -0.86880
O561        O  0.31012425  0.35781953  0.15307708    -0.88380
O562        O  0.12728093  0.24793922  0.25268357    -0.86960
O563        O  0.15362660  0.40633179  0.15319091    -0.87010
O564        O  0.25389588  0.39555575  0.11465379    -0.86720
O565        O  0.22470648  0.23477510  0.21215338    -0.86530
O566        O  0.26247655  0.33350729  0.25331253    -0.86900
O567        O  0.27817935  0.44465545  0.21240425    -0.86360
O568        O  0.21451286  0.26615499  0.25508472    -0.87430
O569        O  0.25196150  0.45301704  0.17241500    -0.86580
O570        O  0.10785466  0.29580165  0.25470904    -0.86980
O571        O  0.25791817  0.25984580  0.17155635    -0.86700
O572        O  0.27026828  0.34561593  0.11124192    -0.86350
O573        O  0.11780996  0.37855034  0.19251216    -0.86760
O574        O  0.24610360  0.40220761  0.25538568    -0.87060
O575        O  0.31840759  0.39369669  0.19237981    -0.88400
Zr576      Zr  0.13964147  0.33514325  0.21499850     2.83100
Zr577      Zr  0.23825292  0.30665188  0.15143574     2.83500
Zr578      Zr  0.17585752  0.25823234  0.21490269     2.84090
Zr579      Zr  0.20551496  0.38659382  0.15189636     2.83360
Zr580      Zr  0.25327712  0.37171278  0.21507224     2.84220
O581        O  0.25282893  0.37054867  0.16745528    -1.08970
O582        O  0.18964009  0.32168453  0.23026776    -1.08470
C583        C  0.21441897  0.40124357  0.26471760     1.06190
C584        C  0.33119566  0.38792556  0.16917149     1.08810
C585        C  0.10794204  0.26447636  0.26385451     1.06360
C586        C  0.12350354  0.39716259  0.16929384     1.06720
C587        C  0.27171278  0.37806911  0.10277192     1.06310
C588        C  0.25354030  0.24251208  0.19518298     1.05860
C589        C  0.24550391  0.29763251  0.26453122     1.06280
C590        C  0.27110869  0.46634734  0.19546208     1.05800
H591        H  0.26253620  0.30806569  0.20645509     0.32480
O592        O  0.23977208  0.30934697  0.19933547    -1.30070
H593        H  0.20421354  0.40913208  0.20692936     0.32500
O594        O  0.20240165  0.38489233  0.19973608    -1.31450
O595        O  0.50890844  0.04802677  0.58750829    -0.86890
O596        O  0.14196141  0.02437328  0.48683807    -0.87060
O597        O  0.09221960  0.99832538  0.58701860    -0.88720
O598        O  0.10806026  0.11030208  0.54610821    -0.87480
O599        O  0.08316417  0.11853430  0.50546518    -0.87070
O600        O  0.04476124  0.43079922  0.58871488    -0.88440
O601        O  0.14983043  0.06005536  0.52615578    -0.86920
O602        O  0.07647604  0.06812289  0.58898646    -0.86510
Zr603      Zr  0.08438220  0.03766276  0.54876846     2.84310
O604        O  0.08408003  0.03665041  0.50114902    -1.08480
O605        O  0.02080918  0.48757739  0.56379659    -1.09210
C606        C  0.04489858  0.06714015  0.59864983     1.06220
C607        C  0.16302386  0.05433678  0.50306471     1.06160
C608        C  0.07544503  0.46237469  0.59821448     1.09140
C609        C  0.10049726  0.13151335  0.52905512     1.06920
H610        H  0.09405589  0.47399378  0.54022361     0.32480
O611        O  0.07135494  0.47538362  0.53308288    -1.29430
H612        H  0.03471153  0.07449892  0.54043022     0.32150
O613        O  0.03332615  0.05046765  0.53322383    -1.31110
O614        O  0.02977026  0.42545621  0.44769048    -0.86880
O615        O  0.39786942  0.45205633  0.54564469    -0.88380
O616        O  0.05667777  0.40076223  0.54560368    -0.86960
O617        O  0.08488223  0.06124334  0.44803264    -0.87010
O618        O  0.48511309  0.07269140  0.48693482    -0.86720
O619        O  0.46008538  0.41465424  0.58689343    -0.86530
O620        O  0.43722744  0.36771681  0.48629725    -0.86900
O621        O  0.44815003  0.47917871  0.44802223    -0.86360
O622        O  0.46459296  0.35930421  0.52568126    -0.87430
O623        O  0.49781013  0.04575639  0.44507615    -0.86580
O624        O  0.09020357  0.42634694  0.50519628    -0.86980
O625        O  0.44008931  0.46209434  0.58877692    -0.86700
O626        O  0.44872064  0.04427472  0.52599021    -0.86350
O627        O  0.10229498  0.01197324  0.44525033    -0.86760
O628        O  0.46309100  0.40830516  0.44471695    -0.87060
O629        O  0.39009980  0.41899548  0.50510164    -0.88400
Zr630      Zr  0.06996715  0.47288792  0.48522770     2.83100
Zr631      Zr  0.47076354  0.50113835  0.54879173     2.83500
Zr632      Zr  0.00737323  0.42422299  0.54842768     2.84090
Zr633      Zr  0.03647983  0.05224832  0.48533421     2.83360
Zr634      Zr  0.45682099  0.43943631  0.48522542     2.84220
O635        O  0.47254389  0.50250567  0.50115481    -1.08970
O636        O  0.00661087  0.42519035  0.50083415    -1.08470
C637        C  0.99428780  0.40766487  0.43591894     1.06190
C638        C  0.37661361  0.42348933  0.52843600     1.08810
C639        C  0.08552739  0.40834743  0.52860017     1.06360
C640        C  0.10319060  0.04400638  0.43646924     1.06720
C641        C  0.45477123  0.06328631  0.50288794     1.06310
C642        C  0.44089640  0.43125493  0.59815679     1.05860
C643        C  0.44617455  0.34657464  0.50242405     1.06280
C644        C  0.46561116  0.51469152  0.43634156     1.05800
H645        H  0.43373310  0.41460624  0.54012484     0.32480
O646        O  0.45789833  0.43735573  0.53307383    -1.30070
H647        H  0.02114152  0.48847565  0.44999007     0.32500
O648        O  0.02110987  0.48825395  0.46970265    -1.31450
C649        C  0.07624227  0.12406147  0.83205119    -0.09560
C650        C  0.06617537  0.12980692  0.85832894     0.06640
C651        C  0.09455109  0.16181417  0.87474399    -0.03320
C652        C  0.13312794  0.18695462  0.86479677    -0.07770
C653        C  0.14332720  0.18091609  0.83862096     0.05750
C654        C  0.11468496  0.14939186  0.82202852    -0.02800
Br655      Br  0.12649020  0.13866235  0.78592508    -0.02490
H656        H  0.05450767  0.09916979  0.81965425     0.09670
H657        H  0.15493644  0.21176163  0.87721446     0.07680
Br658      Br  0.08206961  0.17328195  0.91049381    -0.02920
C659        C  0.02404173  0.24875766  0.04333483    -0.09560
C660        C  0.05326393  0.27669342  0.02526722     0.06640
C661        C  0.05533304  0.26542910  0.99838216    -0.03320
C662        C  0.02818719  0.22639541  0.98997985    -0.07770
C663        C  0.99857337  0.19862796  0.00794318     0.05750
C664        C  0.99684082  0.20977849  0.03493670    -0.02800
Br665      Br  0.95704814  0.17408151  0.06066819    -0.02490
H666        H  0.02227495  0.25749478  0.06410639     0.09670
H667        H  0.52980749  0.21771541  0.96916645     0.07680
Br668      Br  0.09495659  0.30149076  0.97273015    -0.02920
C669        C  0.42678866  0.32942035  0.20742592    -0.09560
C670        C  0.40006171  0.29684241  0.19096142     0.06640
C671        C  0.41230473  0.29045407  0.16542961    -0.03320
C672        C  0.45143835  0.31656656  0.15683374    -0.07770
C673        C  0.47822411  0.34895010  0.17340242     0.05750
C674        C  0.46596136  0.35539811  0.19888137    -0.02800
Br675      Br  0.50093823  0.39952605  0.22218547    -0.02490
H676        H  0.41719342  0.33418742  0.22720821     0.09670
H677        H  0.46110018  0.31179587  0.13707693     0.07680
Br678      Br  0.37765627  0.24590906  0.14229087    -0.02920
C679        C  0.29937546  0.51821072  0.53151272    -0.09560
C680        C  0.30890613  0.01395793  0.50473863     0.06640
C681        C  0.27980259  0.98345116  0.48771191    -0.03320
C682        C  0.24147867  0.45767033  0.49786104    -0.07770
C683        C  0.23206454  0.46167692  0.52474264     0.05750
C684        C  0.26110213  0.49245269  0.54165419    -0.02800
Br685      Br  0.25028422  0.50162399  0.57846662    -0.02490
H686        H  0.32157528  0.54207046  0.54436024     0.09670
H687        H  0.21934392  0.43370405  0.48505155     0.07680
Br688      Br  0.29095587  0.97422823  0.45095501    -0.02920
C689        C  0.21974890  0.09883447  0.66809728    -0.09560
C690        C  0.21416744  0.10839596  0.69456176     0.06640
C691        C  0.18313539  0.07923659  0.71123018    -0.03320
C692        C  0.15781642  0.04094860  0.70096243    -0.07770
C693        C  0.16306359  0.03154318  0.67436704     0.05750
C694        C  0.19462104  0.06046371  0.65790075    -0.02800
Br695      Br  0.20558999  0.04919244  0.62170320    -0.02490
H696        H  0.24417831  0.12103208  0.65559720     0.09670
H697        H  0.13331098  0.01881369  0.71344353     0.07680
Br698      Br  0.17291921  0.09008743  0.74773544    -0.02920
C699        C  0.36562036  0.37594809  0.34585674    -0.09560
C700        C  0.32478492  0.36496174  0.34500127     0.06640
C701        C  0.31299839  0.39354033  0.35075263    -0.03320
C702        C  0.34223553  0.43286112  0.35712266    -0.07770
C703        C  0.38309439  0.44391823  0.35785160     0.05750
C704        C  0.39488891  0.41530971  0.35217200    -0.02800
Br705      Br  0.45053528  0.42905331  0.35201267    -0.02490
H706        H  0.37483271  0.35427161  0.34051721     0.09670
H707        H  0.33300535  0.45456583  0.36233596     0.07680
Br708      Br  0.25740624  0.37994405  0.35039376    -0.02920
C709        C  0.44368252  0.04424765  0.19710245    -0.09560
C710        C  0.42694882  0.03394649  0.17102379     0.06640
C711        C  0.42331086  0.06238399  0.15468352    -0.03320
C712        C  0.43636781  0.10078515  0.16484682    -0.07770
C713        C  0.45269801  0.11093599  0.19105034     0.05750
C714        C  0.45689391  0.08268109  0.20721261    -0.02800
Br715      Br  0.48135665  0.09514968  0.24284188    -0.02490
H716        H  0.44718112  0.02258966  0.20934853     0.09670
H717        H  0.43274452  0.12239682  0.15263666     0.07680
Br718      Br  0.39941564  0.05010535  0.11888015    -0.02920
C719        C  0.14351634  0.16532585  0.35607146    -0.09560
C720        C  0.11377147  0.12445657  0.35703798     0.06640
C721        C  0.07329282  0.11236130  0.35118582    -0.03320
C722        C  0.06308887  0.14138959  0.34440246    -0.07770
C723        C  0.09291683  0.18222935  0.34335680     0.05750
C724        C  0.13331987  0.19429977  0.34932527    -0.02800
Br725      Br  0.17522439  0.24997057  0.34878653    -0.02490
H726        H  0.17449736  0.17479066  0.36143011     0.09670
H727        H  0.03216059  0.13200920  0.33894850     0.07680
Br728      Br  0.03148140  0.05665890  0.35149377    -0.02920
C729        C  0.23575524  0.48099309  0.01266798    -0.09560
C730        C  0.26514222  0.02201027  0.01332937     0.06640
C731        C  0.30523805  0.03406100  0.02031445    -0.03320
C732        C  0.31550140  0.00486270  0.02645124    -0.07770
C733        C  0.28613724  0.46383340  0.02558089     0.05750
C734        C  0.24603759  0.45181198  0.01864083    -0.02800
Br735      Br  0.20484847  0.39599032  0.01628911    -0.02490
H736        H  0.20515792  0.47164381  0.00633077     0.09670
H737        H  0.34614849  0.01415248  0.03261857     0.07680
Br738      Br  0.34653827  0.08987940  0.02182115    -0.02920
C739        C  0.29789087  0.22375696  0.51874130    -0.09560
C740        C  0.25966752  0.19916623  0.50745011     0.06640
C741        C  0.23344300  0.21431781  0.50276088    -0.03320
C742        C  0.24537712  0.25371106  0.51016814    -0.07770
C743        C  0.28343917  0.27818058  0.52167345     0.05750
C744        C  0.30984264  0.26318701  0.52612166    -0.02800
Br745      Br  0.36117479  0.29451450  0.54376307    -0.02490
H746        H  0.31836808  0.21224854  0.52168427     0.09670
H747        H  0.22483584  0.26516469  0.50732568     0.07680
Br748      Br  0.18221345  0.18320855  0.48496178    -0.02920
C749        C  0.46345170  0.36295137  0.68942241    -0.09560
C750        C  0.42554356  0.34873143  0.67748136     0.06640
C751        C  0.39982854  0.30719749  0.67295351    -0.03320
C752        C  0.41234152  0.28023944  0.68061393    -0.07770
C753        C  0.45040757  0.29449723  0.69233330     0.05750
C754        C  0.47591215  0.33598932  0.69715846    -0.02800
Br755      Br  0.02684601  0.35688155  0.71550135    -0.02490
H756        H  0.48345789  0.39505007  0.69237287     0.09670
H757        H  0.39238443  0.24814848  0.67759154     0.07680
Br758      Br  0.34859567  0.28628531  0.65501137    -0.02920
C759        C  0.09128405  0.39340527  0.82138988    -0.09560
C760        C  0.09376784  0.36607554  0.83939448     0.06640
C761        C  0.10773664  0.37769896  0.86612898    -0.03320
C762        C  0.11922157  0.41658134  0.87444206    -0.07770
C763        C  0.11633269  0.44381089  0.85654953     0.05750
C764        C  0.10268274  0.43228875  0.82972600    -0.02800
Br765      Br  0.09743681  0.46748708  0.80417732    -0.02490
H766        H  0.08032725  0.38431872  0.80072313     0.09670
H767        H  0.13020066  0.42562018  0.89510897     0.07680
Br768      Br  0.11295555  0.34244622  0.89164694    -0.02920
C769        C  0.21165975  0.11862468  0.17520668    -0.09560
C770        C  0.17691677  0.08993284  0.16107849     0.06640
C771        C  0.17714423  0.05483805  0.15150048    -0.03320
C772        C  0.20174397  0.04281780  0.16422668    -0.07770
C773        C  0.23282472  0.06938738  0.18134466     0.05750
C774        C  0.24057903  0.10912528  0.18382936    -0.02800
Br775      Br  0.29186979  0.15136027  0.19632236    -0.02490
H776        H  0.21772658  0.14898385  0.17874259     0.09670
H777        H  0.19775683  0.01341939  0.15948320     0.07680
Br778      Br  0.15923459  0.03053923  0.11609595    -0.02920
C779        C  0.07690905  0.41041683  0.33341841    -0.09560
C780        C  0.06738690  0.39565763  0.36003449     0.06640
C781        C  0.09661052  0.39393460  0.37671388    -0.03320
C782        C  0.13477884  0.40660911  0.36641879    -0.07770
C783        C  0.14417488  0.42092180  0.33974640     0.05750
C784        C  0.11529103  0.42346243  0.32317422    -0.02800
Br785      Br  0.12683881  0.44561828  0.28687196    -0.02490
H786        H  0.05470984  0.41251921  0.32084734     0.09670
H787        H  0.15687224  0.40429154  0.37898148     0.07680
Br788      Br  0.08612809  0.37338699  0.41330884    -0.02920
C789        C  0.29829899  0.22870478  0.03188223    -0.09560
C790        C  0.31184659  0.25248447  0.00841457     0.06640
C791        C  0.28643611  0.26295211  0.99409512    -0.03320
C792        C  0.24740225  0.24899815  0.00330346    -0.07770
C793        C  0.23376161  0.22493519  0.02661466     0.05750
C794        C  0.25923935  0.21474137  0.04110126    -0.02800
Br795      Br  0.24172714  0.18126031  0.07315976    -0.02490
H796        H  0.31769338  0.22007727  0.04249431     0.09670
H797        H  0.22792735  0.25746409  0.99262715     0.07680
Br798      Br  0.30370894  0.29623624  0.96201438    -0.02920
C799        C  0.47907324  0.21901722  0.52784186    -0.09560
C800        C  0.49297657  0.24889980  0.50777293     0.06640
C801        C  0.03164193  0.26425009  0.49638048    -0.03320
C802        C  0.05620027  0.24954770  0.50520725    -0.07770
C803        C  0.04247866  0.21989645  0.52535905     0.05750
C804        C  0.00383287  0.20449970  0.53687936    -0.02800
Br805      Br  0.48405994  0.16411113  0.56500994    -0.02490
H806        H  0.44891591  0.20671278  0.53611736     0.09670
H807        H  0.08641590  0.26202805  0.49697666     0.07680
Br808      Br  0.05215522  0.30537215  0.46893200    -0.02920
C809        C  0.38959855  0.40677831  0.82908160    -0.09560
C810        C  0.38724371  0.39591551  0.85650611     0.06640
C811        C  0.35786549  0.39642283  0.87374921    -0.03320
C812        C  0.33194712  0.40850475  0.86336655    -0.07770
C813        C  0.33441290  0.41957748  0.83602915     0.05750
C814        C  0.36351314  0.41879976  0.81866825    -0.02800
Br815      Br  0.37042297  0.43533822  0.78100933    -0.02490
H816        H  0.41237019  0.40678314  0.81594630     0.09670
H817        H  0.30913576  0.40840709  0.87651891     0.07680
Br818      Br  0.35016500  0.37962053  0.91134115    -0.02920
C819        C  0.46674361  0.10895248  0.67706379    -0.09560
C820        C  0.47876423  0.07998929  0.67929446     0.06640
C821        C  0.45127143  0.04056771  0.68788166    -0.03320
C822        C  0.41186776  0.03044917  0.69398904    -0.07770
C823        C  0.39975414  0.05932380  0.69155492     0.05750
C824        C  0.42732735  0.09883224  0.68312641    -0.02800
Br825      Br  0.41204218  0.13927688  0.67893733    -0.02490
H826        H  0.48766016  0.13899582  0.66957203     0.09670
H827        H  0.39089405  0.00033721  0.70134089     0.07680
Br828      Br  0.46651639  0.00006024  0.69166760    -0.02920
C829        C  0.28851123  0.00216271  0.70610887     0.02730
C830        C  0.32519709  0.51835506  0.69174392    -0.13420
C831        C  0.36069629  0.54941220  0.70275909     0.00230
C832        C  0.36051455  0.56641907  0.72758554    -0.11950
C833        C  0.32521104  0.55217740  0.74265638     0.02720
C834        C  0.28858738  0.51974999  0.73186881    -0.11370
H835        H  0.32734133  0.00491056  0.67282113     0.08310
H836        H  0.38894039  0.59035731  0.73557053     0.05840
H837        H  0.26116038  0.50735353  0.74382530     0.05690
C838        C  0.08912379  0.63608966  0.66204996     0.02730
C839        C  0.05337484  0.61969055  0.67753933    -0.13420
C840        C  0.01698876  0.58934260  0.66695620     0.00230
C841        C  0.01536356  0.57300278  0.64148635    -0.11950
C842        C  0.04972085  0.58726272  0.62546340     0.02720
C843        C  0.08714046  0.61914101  0.63574497    -0.11370
H844        H  0.05256793  0.63270792  0.69699697     0.08310
H845        H  0.48637863  0.54963195  0.63382395     0.05840
H846        H  0.11378255  0.63173160  0.62296156     0.05690
C847        C  0.27632231  0.97396726  0.82500451     0.02730
C848        C  0.30072464  0.96053007  0.83731637    -0.13420
C849        C  0.30490753  0.92969040  0.82567532     0.00230
C850        C  0.28227516  0.90910479  0.80324661    -0.11950
C851        C  0.25982555  0.92259242  0.78915635     0.02720
C852        C  0.25613975  0.95506898  0.80018332    -0.11370
H853        H  0.31912249  0.97586613  0.85497655     0.08310
H854        H  0.28422869  0.88340038  0.79590871     0.05840
H855        H  0.23921100  0.96629329  0.78919275     0.05690
C856        C  0.44129880  0.83844150  0.87113723     0.02730
C857        C  0.42018236  0.85406782  0.85676629    -0.13420
C858        C  0.41667329  0.88596997  0.86734695     0.00230
C859        C  0.43753375  0.90583446  0.89055234    -0.11950
C860        C  0.45569743  0.88979401  0.90670360     0.02720
C861        C  0.45857914  0.85625884  0.89683763    -0.11370
H862        H  0.40318072  0.83932633  0.83850680     0.08310
H863        H  0.43625534  0.93217439  0.89729293     0.05840
H864        H  0.47234336  0.84320775  0.90947441     0.05690
C865        C  0.44038752  0.80698835  0.49250475     0.02730
C866        C  0.46036466  0.79046145  0.50712241    -0.13420
C867        C  0.46519152  0.75988564  0.49591356     0.00230
C868        C  0.44841086  0.74311581  0.47100557    -0.11950
C869        C  0.42774401  0.75763648  0.45582072     0.02720
C870        C  0.42338509  0.78986172  0.46658567    -0.11370
H871        H  0.47540877  0.80340130  0.52630981     0.08310
H872        H  0.45263687  0.71895253  0.46321678     0.05840
H873        H  0.40849930  0.80235003  0.45456650     0.05690
C874        C  0.10380658  0.67005349  0.53894770     0.02730
C875        C  0.12079434  0.68801526  0.56465706    -0.13420
C876        C  0.11310082  0.71783357  0.57603759     0.00230
C877        C  0.08808331  0.72821179  0.56205337    -0.11950
C878        C  0.07124334  0.71047771  0.53738575     0.02720
C879        C  0.08015750  0.68318107  0.52520697    -0.11370
H880        H  0.13840522  0.67795714  0.57604471     0.08310
H881        H  0.08111416  0.75030773  0.57031446     0.05840
H882        H  0.06539400  0.66973405  0.50603714     0.05690
C883        C  0.42321485  0.80423125  0.99418066     0.02730
C884        C  0.38654723  0.79016723  0.00834262    -0.13420
C885        C  0.35024697  0.76140339  0.99678178     0.00230
C886        C  0.34941009  0.74306420  0.97238905    -0.11950
C887        C  0.38446350  0.75521594  0.95757211     0.02720
C888        C  0.42196244  0.78629177  0.96838650    -0.11370
H889        H  0.38522153  0.80402698  0.02729635     0.08310
H890        H  0.32045590  0.71979737  0.96460476     0.05840
H891        H  0.44931556  0.79733926  0.95647663     0.05690
C892        C  0.12224680  0.66876673  0.03986546     0.02730
C893        C  0.15934142  0.68416719  0.02610203    -0.13420
C894        C  0.19466244  0.71460363  0.03762213     0.00230
C895        C  0.19399193  0.73293487  0.06162941    -0.11950
C896        C  0.15846823  0.71921937  0.07625870     0.02720
C897        C  0.12190629  0.68677100  0.06537234    -0.11370
H898        H  0.16187755  0.67036818  0.00746572     0.08310
H899        H  0.22229850  0.75741336  0.06936416     0.05840
H900        H  0.09421509  0.67480459  0.07699791     0.05690
C901        C  0.45559296  0.83658224  0.37335995     0.02730
C902        C  0.49286582  0.85253896  0.35970071    -0.13420
C903        C  0.02773841  0.88439514  0.37083294     0.00230
C904        C  0.02594347  0.90346585  0.39416866    -0.11950
C905        C  0.49071278  0.88778939  0.40932737     0.02720
C906        C  0.45474928  0.85437506  0.39877769    -0.11370
H907        H  0.49587906  0.83836252  0.34141510     0.08310
H908        H  0.05346412  0.92952995  0.40142690     0.05840
H909        H  0.42716880  0.84159114  0.41057982     0.05690
C910        C  0.21862290  0.92214969  0.29103751     0.02730
C911        C  0.18325879  0.90978761  0.30549382    -0.13420
C912        C  0.18301187  0.92983007  0.32876198     0.00230
C913        C  0.21893156  0.95917245  0.34048802    -0.11950
C914        C  0.25611921  0.97234514  0.32730527     0.02720
C915        C  0.25573377  0.95373924  0.30195001    -0.11370
H916        H  0.15475865  0.88536202  0.29798800     0.08310
H917        H  0.21701308  0.97401646  0.35878029     0.05840
H918        H  0.28343382  0.96456044  0.29048431     0.05690
C919        C  0.11416625  0.64292858  0.15666078     0.02730
C920        C  0.14151478  0.63124784  0.16666283    -0.13420
C921        C  0.14310704  0.59814789  0.15548592     0.00230
C922        C  0.11170367  0.57294575  0.13839459    -0.11950
C923        C  0.09118393  0.58774997  0.12350407     0.02720
C924        C  0.09097490  0.62258229  0.13317487    -0.11370
H925        H  0.16214500  0.64878383  0.18274975     0.08310
H926        H  0.10448713  0.54241622  0.13484129     0.05840
H927        H  0.07393807  0.63392665  0.12245473     0.05690
C928        C  0.27835316  0.00685632  0.20473993     0.02730
C929        C  0.26495904  0.52699365  0.18743944    -0.13420
C930        C  0.25483936  0.55471533  0.19788570     0.00230
C931        C  0.26128449  0.56528056  0.22537467    -0.11950
C932        C  0.28098762  0.55152428  0.24221927     0.02720
C933        C  0.28854816  0.52093692  0.23214798    -0.11370
H934        H  0.25898457  0.01860549  0.16612446     0.08310
H935        H  0.25207034  0.58575089  0.23346548     0.05840
H936        H  0.30070608  0.50732969  0.24573322     0.05690
C937        C  0.03648709  0.75423879  0.82622094     0.02730
C938        C  0.05435385  0.75369926  0.80075939    -0.13420
C939        C  0.08703632  0.79001055  0.78995079     0.00230
C940        C  0.10186413  0.82535851  0.80489692    -0.11950
C941        C  0.08353336  0.82654340  0.82884513     0.02720
C942        C  0.05191442  0.79140604  0.83986720    -0.11370
H943        H  0.04199349  0.72607626  0.78903529     0.08310
H944        H  0.12707543  0.85325707  0.79727391     0.05840
H945        H  0.03734209  0.79412002  0.85804278     0.05690
C946        C  0.17145780  0.55536807  0.87097299     0.02730
C947        C  0.15638810  0.51872057  0.85667485    -0.13420
C948        C  0.12541201  0.98285760  0.86747446     0.00230
C949        C  0.10706361  0.98285070  0.89176121    -0.11950
C950        C  0.12160985  0.51756354  0.90730813     0.02720
C951        C  0.15380684  0.55452263  0.89679721    -0.11370
H952        H  0.17106634  0.51694685  0.83825857     0.08310
H953        H  0.08232107  0.95451067  0.89923375     0.05840
H954        H  0.16609904  0.58164542  0.90906679     0.05690
C955        C  0.37171703  0.90563590  0.66139621     0.02730
C956        C  0.38702631  0.88480845  0.67637273    -0.13420
C957        C  0.41630882  0.87769625  0.66526767     0.00230
C958        C  0.43327775  0.89330742  0.64011040    -0.11950
C959        C  0.42028140  0.91509521  0.62469937     0.02720
C960        C  0.38904792  0.92131883  0.63529195    -0.11370
H961        H  0.37381212  0.87060785  0.69572845     0.08310
H962        H  0.45626104  0.88728649  0.63229419     0.05840
H963        H  0.37730593  0.93659201  0.62292871     0.05690
C964        C  0.00661553  0.73940178  0.70641607     0.02730
C965        C  0.99075639  0.76034509  0.69219108    -0.13420
C966        C  0.46043034  0.76552089  0.70356920     0.00230
C967        C  0.44319654  0.74799152  0.72824169    -0.11950
C968        C  0.45713523  0.72644694  0.74308396     0.02720
C969        C  0.48914418  0.72186486  0.73215512    -0.11370
H970        H  0.00410081  0.77591595  0.67321718     0.08310
H971        H  0.41935863  0.75256177  0.73625271     0.05840
H972        H  0.00130233  0.70648113  0.74397575     0.05690
C973        C  0.20306445  0.58806375  0.49327833     0.02730
C974        C  0.22069173  0.58816139  0.46750775    -0.13420
C975        C  0.25321301  0.62479066  0.45672946     0.00230
C976        C  0.26742663  0.66007365  0.47179071    -0.11950
C977        C  0.25005173  0.66021170  0.49643167     0.02720
C978        C  0.21938655  0.62469053  0.50767514    -0.11370
H979        H  0.20826926  0.56075591  0.45555141     0.08310
H980        H  0.29146361  0.68852402  0.46389605     0.05840
H981        H  0.20600192  0.62687552  0.52661859     0.05690
C982        C  0.33688111  0.88878522  0.53771192     0.02730
C983        C  0.31958879  0.88690292  0.56387276    -0.13420
C984        C  0.28825635  0.84931419  0.57438878     0.00230
C985        C  0.27518418  0.81467135  0.55887515    -0.11950
C986        C  0.29217153  0.81626450  0.53371383     0.02720
C987        C  0.32142230  0.85276932  0.52263674    -0.11370
H988        H  0.33144906  0.91380499  0.57633947     0.08310
H989        H  0.25223382  0.78555990  0.56665783     0.05840
H990        H  0.33462812  0.85190308  0.50326955     0.05690
C991        C  0.20717194  0.57420155  0.99544537     0.02730
C992        C  0.22439510  0.55588111  0.01121873    -0.13420
C993        C  0.25503965  0.55024560  0.00070398     0.00230
C994        C  0.27067541  0.56428336  0.97494928    -0.11950
C995        C  0.25565836  0.58343658  0.95867103     0.02720
C996        C  0.22362046  0.58865148  0.96892636    -0.11370
H997        H  0.21180983  0.54251931  0.03088464     0.08310
H998        H  0.29414632  0.55889715  0.96726732     0.05840
H999        H  0.21051293  0.60202009  0.95596485     0.05690
C1000       C  0.34156600  0.90753564  0.03939410     0.02730
C1001       C  0.32398330  0.88992975  0.06514163    -0.13420
C1002       C  0.29265733  0.89537643  0.07642445     0.00230
C1003       C  0.27963582  0.91795969  0.06191603    -0.11950
C1004       C  0.29632302  0.93491443  0.03694548     0.02720
C1005       C  0.32638428  0.92932884  0.02545963    -0.11370
H1006       H  0.33553134  0.87374515  0.07668406     0.08310
H1007       H  0.25653115  0.92336903  0.07028195     0.05840
H1008       H  0.33976652  0.94476697  0.00645455     0.05690
C1009       C  0.17303962  0.57306464  0.37318093     0.02730
C1010       C  0.15565515  0.59188623  0.35817328    -0.13420
C1011       C  0.12467264  0.59647800  0.36912300     0.00230
C1012       C  0.10893899  0.58093345  0.39456041    -0.11950
C1013       C  0.12373373  0.56067872  0.40995578     0.02720
C1014       C  0.15614941  0.55650654  0.39926773    -0.11370
H1015       H  0.16817810  0.60622528  0.33872610     0.08310
H1016       H  0.08526626  0.58570611  0.40262466     0.05840
H1017       H  0.16904371  0.54221938  0.41150901     0.05690
C1018       C  0.03858203  0.73891388  0.32715467     0.02730
C1019       C  0.05582362  0.75459738  0.30098955    -0.13420
C1020       C  0.08648601  0.74768541  0.29010084     0.00230
C1021       C  0.09868408  0.72499341  0.30517221    -0.11950
C1022       C  0.08272844  0.71035264  0.33072492     0.02720
C1023       C  0.05369769  0.71776107  0.34195995    -0.11370
H1024       H  0.04453755  0.77050703  0.28886530     0.08310
H1025       H  0.12092954  0.71817100  0.29700281     0.05840
H1026       H  0.04088219  0.70402971  0.36149964     0.05690
C1027       C  0.45533382  0.68470602  0.24095455     0.02730
C1028       C  0.44230389  0.64966091  0.22597750    -0.13420
C1029       C  0.46184010  0.64970985  0.20232020     0.00230
C1030       C  0.49168541  0.68570618  0.19096098    -0.11950
C1031       C  0.00580793  0.72260329  0.20478735     0.02720
C1032       C  0.48740618  0.72184247  0.23034879    -0.11370
H1033       H  0.41779881  0.62112551  0.23338323     0.08310
H1034       H  0.00621102  0.68394397  0.17245248     0.05840
H1035       H  0.99884753  0.74922017  0.24226283     0.05690
C1036       C  0.37049786  0.92184859  0.15892228     0.02730
C1037       C  0.38550403  0.95936483  0.17205281    -0.13420
C1038       C  0.41615023  0.99443496  0.16029063     0.00230
C1039       C  0.43507942  0.99279165  0.13684015    -0.11950
C1040       C  0.42081208  0.95697121  0.12247895     0.02720
C1041       C  0.38839625  0.92080990  0.13360209    -0.11370
H1042       H  0.37135433  0.96230350  0.19038439     0.08310
H1043       H  0.46022448  0.52065349  0.12911557     0.05840
H1044       H  0.37632796  0.89287815  0.12225555     0.05690
C1045       C  0.27017118  0.75411076  0.32828356     0.02730
C1046       C  0.29000356  0.79013571  0.34347621    -0.13420
C1047       C  0.29658384  0.82650519  0.33247200     0.00230
C1048       C  0.28224352  0.82778704  0.30677825    -0.11950
C1049       C  0.26123822  0.79307962  0.29122485     0.02720
C1050       C  0.25507898  0.75571397  0.30193627    -0.11370
H1051       H  0.30351910  0.79103707  0.36310358     0.08310
H1052       H  0.28843074  0.85674057  0.29870276     0.05840
H1053       H  0.24033539  0.72876157  0.28949488     0.05690
C1054       C  0.43634689  0.55514809  0.37284937     0.02730
C1055       C  0.41644376  0.51858795  0.35830097    -0.13420
C1056       C  0.41152677  0.98300517  0.36953612     0.00230
C1057       C  0.42767257  0.98312997  0.39481446    -0.11950
C1058       C  0.44879672  0.51846546  0.40981988     0.02720
C1059       C  0.45335749  0.55507662  0.39882988    -0.11370
H1060       H  0.40167734  0.51661744  0.33900896     0.08310
H1061       H  0.42265789  0.95467441  0.40308007     0.05840
H1062       H  0.46832659  0.58251669  0.41076338     0.05690
C1063       C  0.26827136  0.72024686  0.70717348     0.02730
C1064       C  0.28749941  0.72128773  0.73242448    -0.13420
C1065       C  0.28457516  0.68523547  0.74315034     0.00230
C1066       C  0.26394810  0.64976466  0.72837310    -0.11950
C1067       C  0.24268582  0.64795914  0.70525227     0.02720
C1068       C  0.24610069  0.68281554  0.69388922    -0.11370
H1069       H  0.30299622  0.74906467  0.74396832     0.08310
H1070       H  0.26215755  0.62212743  0.73568435     0.05840
H1071       H  0.22860651  0.67971329  0.67571138     0.05690
C1072       C  0.10409214  0.91991693  0.66073635     0.02730
C1073       C  0.08643895  0.92067526  0.63519953    -0.13420
C1074       C  0.09160251  0.95781269  0.62466108     0.00230
C1075       C  0.11345000  0.99277500  0.63970933    -0.11950
C1076       C  0.13332946  0.99278208  0.66317115     0.02720
C1077       C  0.12718680  0.95680913  0.67450702    -0.11370
H1078       H  0.07041899  0.89331452  0.62326578     0.08310
H1079       H  0.11719472  0.52124519  0.63243285     0.05840
H1080       H  0.14365422  0.95856485  0.69295121     0.05690
C1081       C  0.42100276  0.56899678  0.49264136     0.02730
C1082       C  0.38346701  0.54661723  0.50579936    -0.13420
C1083       C  0.34856286  0.54298311  0.49429714     0.00230
C1084       C  0.35048678  0.56442991  0.47122709    -0.11950
C1085       C  0.38602813  0.58508321  0.45648748     0.02720
C1086       C  0.42208078  0.58814493  0.46733732    -0.11370
H1087       H  0.38033424  0.52902620  0.52393227     0.08310
H1088       H  0.32286219  0.56259026  0.46383585     0.05840
H1089       H  0.44988931  0.60361220  0.45580598     0.05690
C1090       C  0.12022274  0.90356286  0.53825573     0.02730
C1091       C  0.12082882  0.88577467  0.56379786    -0.13420
C1092       C  0.15777364  0.89023117  0.57419529     0.00230
C1093       C  0.19264122  0.91125133  0.55890036    -0.11950
C1094       C  0.19303272  0.93172558  0.53563294     0.02720
C1095       C  0.15720577  0.92637990  0.52447208    -0.11370
H1096       H  0.09353798  0.87025028  0.57586730     0.08310
H1097       H  0.22088765  0.91427020  0.56602730     0.05840
H1098       H  0.15917644  0.94324019  0.50618656     0.05690
C1099       C  0.28865594  0.73928440  0.20538662     0.02730
C1100       C  0.32528067  0.76127428  0.19115416    -0.13420
C1101       C  0.36134172  0.76789017  0.20259580     0.00230
C1102       C  0.36178573  0.75097969  0.22739832    -0.11950
C1103       C  0.32676476  0.72931238  0.24247919     0.02720
C1104       C  0.28963991  0.72352660  0.23162192    -0.11370
H1105       H  0.32672900  0.77633825  0.17209144     0.08310
H1106       H  0.39043676  0.75577003  0.23514592     0.05840
H1107       H  0.26224094  0.70766522  0.24354695     0.05690
C1108       C  0.08954584  0.90262131  0.15918210     0.02730
C1109       C  0.05273247  0.88177011  0.17335689    -0.13420
C1110       C  0.01739707  0.87735445  0.16213905     0.00230
C1111       C  0.01789993  0.89529496  0.13761801    -0.11950
C1112       C  0.05304167  0.91571294  0.12247420     0.02720
C1113       C  0.08958310  0.91990434  0.13330501    -0.11370
H1114       H  0.05038645  0.86582563  0.19217850     0.08310
H1115       H  0.98972257  0.89185999  0.12994746     0.05840
H1116       H  0.11701162  0.93479102  0.12135207     0.05690
C1117       C  0.43888558  0.58663522  0.99395815     0.02730
C1118       C  0.46254141  0.62350122  0.00769529    -0.13420
C1119       C  0.46819366  0.65966223  0.99692669     0.00230
C1120       C  0.44895730  0.65986103  0.97307806    -0.11950
C1121       C  0.42665105  0.62487277  0.95804952     0.02720
C1122       C  0.42107188  0.58760244  0.96858025    -0.11370
H1123       H  0.47966716  0.62501944  0.02572186     0.08310
H1124       H  0.45311626  0.68841524  0.96564546     0.05840
H1125       H  0.40460175  0.56022442  0.95672020     0.05690
C1126       C  0.10496343  0.88838264  0.03932567     0.02730
C1127       C  0.12311721  0.88900993  0.06491764    -0.13420
C1128       C  0.12051502  0.85305994  0.07542650     0.00230
C1129       C  0.10159080  0.81805565  0.05996784    -0.11950
C1130       C  0.08201528  0.81654224  0.03592308     0.02720
C1131       C  0.08438965  0.85139647  0.02524197    -0.11370
H1132       H  0.13737838  0.91637427  0.07696021     0.08310
H1133       H  0.09988203  0.79050935  0.06739514     0.05840
H1134       H  0.06711185  0.84851786  0.00700266     0.05690
C1135       C  0.25509328  0.73491383  0.82571864     0.02730
C1136       C  0.21778756  0.71309669  0.83924098    -0.13420
C1137       C  0.18285008  0.70957967  0.82793573     0.00230
C1138       C  0.18443516  0.73039354  0.80460989    -0.11950
C1139       C  0.21974251  0.75066860  0.78961766     0.02720
C1140       C  0.25588379  0.75369330  0.80029519    -0.11370
H1141       H  0.21481006  0.69585539  0.85753169     0.08310
H1142       H  0.15671063  0.72840214  0.79728077     0.05840
H1143       H  0.28353069  0.76888964  0.78857632     0.05690
C1144       C  0.45449954  0.57014586  0.87170433     0.02730
C1145       C  0.49142577  0.59345250  0.85798774    -0.13420
C1146       C  0.02745479  0.59990550  0.86943327     0.00230
C1147       C  0.02756739  0.58020109  0.89295146    -0.11950
C1148       C  0.49254794  0.55800050  0.90786927     0.02720
C1149       C  0.45532136  0.55252772  0.89724455    -0.11370
H1150       H  0.49314574  0.60988315  0.83953005     0.08310
H1151       H  0.05613092  0.58430978  0.90034933     0.05840
H1152       H  0.42791803  0.53629862  0.90912720     0.05690
O1153       O  0.36455920  0.59078261  0.78090855    -0.86890
O1154       O  0.23243200  0.61852259  0.87862419    -0.87060
O1155       O  0.27157918  0.53377085  0.81952533    -0.88720
O1156       O  0.28391622  0.64614075  0.78125882    -0.87480
O1157       O  0.33341714  0.71280195  0.77826586    -0.87070
O1158       O  0.29873809  0.52520340  0.85901477    -0.88440
O1159       O  0.22452718  0.58512506  0.83819289    -0.86920
O1160       O  0.29793823  0.57372500  0.77795770    -0.86510
Zr1161     Zr  0.29126967  0.60542562  0.81835080     2.84310
O1162       O  0.30691970  0.66856078  0.83419494    -1.08480
O1163       O  0.34085860  0.59124299  0.83430150    -1.09210
C1164       C  0.32904878  0.57276551  0.76918178     1.06220
C1165       C  0.21115262  0.58983146  0.86151911     1.06160
C1166       C  0.28073664  0.51271272  0.83556341     1.09140
C1167       C  0.30142071  0.68165619  0.76954724     1.06920
H1168       H  0.26810846  0.58087975  0.87336821     0.32480
O1169       O  0.29227679  0.60354918  0.86624893    -1.29430
H1170       H  0.35554588  0.65439588  0.78324008     0.32150
O1171       O  0.35547798  0.65431744  0.80295216    -1.31110
O1172       O  0.34399290  0.71484248  0.92002537    -0.86880
O1173       O  0.47590659  0.69028475  0.82009209    -0.88380
O1174       O  0.29451311  0.58155111  0.92059937    -0.86960
O1175       O  0.31909032  0.73832255  0.81987783    -0.87010
O1176       O  0.41890621  0.72710321  0.78132845    -0.86720
O1177       O  0.39080099  0.56688446  0.87907772    -0.86530
O1178       O  0.42698550  0.66523336  0.92035860    -0.86900
O1179       O  0.44264842  0.77694445  0.87891348    -0.86360
O1180       O  0.37949380  0.59771898  0.92219680    -0.87430
O1181       O  0.41709813  0.78512050  0.83856769    -0.86580
O1182       O  0.27449929  0.62902542  0.92197254    -0.86980
O1183       O  0.42403164  0.59207400  0.83851201    -0.86700
O1184       O  0.43570542  0.67742976  0.77820837    -0.86350
O1185       O  0.28301230  0.71042724  0.85908395    -0.86760
O1186       O  0.41148430  0.73485580  0.92196832    -0.87060
O1187       O  0.48406139  0.72594261  0.85947798    -0.88400
Zr1188     Zr  0.30523006  0.66742245  0.88178645     2.83100
Zr1189     Zr  0.40407283  0.63870389  0.81847384     2.83500
Zr1190     Zr  0.34150261  0.59032009  0.88192886     2.84090
Zr1191     Zr  0.37092991  0.71845715  0.81864119     2.83360
Zr1192     Zr  0.41876495  0.70399228  0.88191250     2.84220
O1193       O  0.41842310  0.70265753  0.83430875    -1.08970
O1194       O  0.35516775  0.65389118  0.89700317    -1.08470
C1195       C  0.37989670  0.73414517  0.93126684     1.06190
C1196       C  0.49695192  0.72031282  0.83626150     1.08810
C1197       C  0.27546445  0.59845326  0.93171188     1.06360
C1198       C  0.28887424  0.72915491  0.83589217     1.06720
C1199       C  0.43672715  0.70958484  0.76954708     1.06310
C1200       C  0.41954477  0.57437290  0.86200418     1.05860
C1201       C  0.41025476  0.62935544  0.93163224     1.06280
C1202       C  0.43533705  0.79840318  0.86185453     1.05800
H1203       H  0.42813746  0.64007272  0.87352794     0.32480
O1204       O  0.40544858  0.64147006  0.86637061    -1.30070
H1205       H  0.36934618  0.74112118  0.87352960     0.32500
O1206       O  0.36783658  0.71697747  0.86643333    -1.31450
O1207       O  0.45313745  0.92781911  0.94481630    -0.86890
O1208       O  0.10679809  0.95153230  0.04585946    -0.87060
O1209       O  0.08299147  0.97724675  0.94546325    -0.88720
O1210       O  0.48705675  0.86488308  0.98681591    -0.87480
O1211       O  0.45388280  0.85636173  0.02740605    -0.87070
O1212       O  0.10306214  0.54475966  0.94375844    -0.88440
O1213       O  0.08041321  0.91634693  0.00614773    -0.86920
O1214       O  0.50043009  0.90754121  0.94357796    -0.86510
Zr1215     Zr  0.03659950  0.93785670  0.98412130     2.84310
O1216       O  0.03711711  0.93907738  0.03167695    -1.08480
O1217       O  0.02285025  0.98765037  0.96899703    -1.09210
C1218       C  0.47032006  0.90903429  0.93366862     1.06220
C1219       C  0.09857533  0.92188780  0.02950006     1.06160
C1220       C  0.10188490  0.01313326  0.93414684     1.09140
C1221       C  0.45832257  0.84335879  0.00388264     1.06920
H1222       H  0.10989041  0.00215825  0.99257920     0.32480
O1223       O  0.08565806  0.00050291  0.99965470    -1.29430
H1224       H  0.44961554  0.90018312  0.99194166     0.32150
O1225       O  0.47223149  0.92423183  0.99922712    -1.31110
O1226       O  0.09187390  0.54939971  0.08544831    -0.86880
O1227       O  0.43560957  0.52292689  0.98638275    -0.88380
O1228       O  0.14547902  0.57515168  0.98737743    -0.86960
O1229       O  0.51348176  0.91470439  0.08439334    -0.87010
O1230       O  0.40183294  0.90352962  0.04552774    -0.86720
O1231       O  0.03292464  0.55855499  0.94563803    -0.86530
O1232       O  0.05843079  0.60773875  0.04598366    -0.86900
O1233       O  0.45861291  0.49544440  0.08411133    -0.86360
O1234       O  0.09383431  0.61661816  0.00638308    -0.87430
O1235       O  0.44205430  0.92904424  0.08755568    -0.86580
O1236       O  0.15348189  0.54990302  0.02792601    -0.86980
O1237       O  0.46545025  0.51087707  0.94356350    -0.86700
O1238       O  0.39330813  0.92985700  0.00565515    -0.86350
O1239       O  0.08014282  0.96413258  0.08719474    -0.86760
O1240       O  0.04244266  0.56662310  0.08815704    -0.87060
O1241       O  0.45961405  0.55539630  0.02728322    -0.88400
Zr1242     Zr  0.08650359  0.00312002  0.04747695     2.83100
Zr1243     Zr  0.45898924  0.97346949  0.98369689     2.83500
Zr1244     Zr  0.07250400  0.55132664  0.98412983     2.84090
Zr1245     Zr  0.47356637  0.92288511  0.04708873     2.83360
Zr1246     Zr  0.00653838  0.53580372  0.04707065     2.84220
O1247       O  0.45924306  0.97248159  0.03126893    -1.08970
O1248       O  0.07091029  0.55075865  0.03174086    -1.08470
C1249       C  0.07406817  0.56705262  0.09721146     1.06190
C1250       C  0.44263501  0.55138841  0.00359474     1.08810
C1251       C  0.16694338  0.56810320  0.00461099     1.06360
C1252       C  0.04907053  0.93216034  0.09598108     1.06720
C1253       C  0.38066567  0.91217398  0.02918113     1.06310
C1254       C  0.99705467  0.54172500  0.93426765     1.05860
C1255       C  0.08828891  0.62919371  0.02975771     1.06280
C1256       C  0.44100121  0.96017007  0.09606726     1.05800
H1257       H  0.00834343  0.56029685  0.99220290     0.32480
O1258       O  0.00972419  0.53757587  0.99930244    -1.30070
H1259       H  0.02182311  0.98683627  0.08232985     0.32500
O1260       O  0.02205985  0.98712120  0.06262215    -1.31450
O1261       O  0.42844191  0.71919555  0.41768737    -0.86890
O1262       O  0.26763553  0.69076908  0.32068531    -0.87060
O1263       O  0.39153529  0.77585487  0.37928725    -0.88720
O1264       O  0.29195980  0.66427074  0.41851588    -0.87480
O1265       O  0.27456569  0.59756244  0.42129700    -0.87070
O1266       O  0.42786805  0.78397838  0.34024062    -0.88440
O1267       O  0.29345404  0.72433182  0.36104781    -0.86920
O1268       O  0.37870411  0.73593569  0.42085685    -0.86510
Zr1269     Zr  0.33978281  0.70392530  0.38087026     2.84310
O1270       O  0.29201378  0.64072776  0.36505992    -1.08480
O1271       O  0.40376971  0.71833744  0.36501892    -1.09210
C1272       C  0.41095795  0.73711620  0.42941784     1.06220
C1273       C  0.27524380  0.71956280  0.33775209     1.06160
C1274       C  0.42187064  0.79690745  0.36330726     1.09140
C1275       C  0.27379188  0.62870079  0.43017663     1.06920
H1276       H  0.34101898  0.72805476  0.32607231     0.32480
O1277       O  0.34252988  0.70534087  0.33303575    -1.29430
H1278       H  0.35551804  0.65544114  0.41598653     0.32150
O1279       O  0.35538333  0.65530760  0.39627509    -1.31110
O1280       O  0.28023961  0.59279189  0.27933059    -0.86880
O1281       O  0.43941190  0.61894885  0.37905256    -0.88380
O1282       O  0.36670523  0.72869255  0.27985739    -0.86960
O1283       O  0.23431078  0.57072141  0.37952410    -0.87010
O1284       O  0.34701351  0.58404469  0.41818515    -0.86720
O1285       O  0.47801895  0.74218426  0.31987427    -0.86530
O1286       O  0.41519035  0.64428444  0.27867616    -0.86900
O1287       O  0.31995327  0.53259926  0.32027091    -0.86360
O1288       O  0.43553832  0.71184528  0.27694541    -0.87430
O1289       O  0.28643668  0.52450651  0.36070750    -0.86580
O1290       O  0.29927653  0.68097606  0.27762912    -0.86980
O1291       O  0.48622474  0.71703098  0.36037704    -0.86700
O1292       O  0.41372891  0.63350510  0.42108313    -0.86350
O1293       O  0.22617770  0.59879448  0.34037197    -0.86760
O1294       O  0.32767817  0.57269625  0.27824327    -0.87060
O1295       O  0.41157484  0.58320073  0.33973967    -0.88400
Zr1296     Zr  0.29119486  0.64157305  0.31737771     2.83100
Zr1297     Zr  0.41956797  0.67081308  0.38052733     2.83500
Zr1298     Zr  0.40517250  0.71884059  0.31744504     2.84090
Zr1299     Zr  0.30633791  0.59111517  0.38089600     2.83360
Zr1300     Zr  0.36835987  0.60540846  0.31727328     2.84220
O1301       O  0.36952093  0.60685379  0.36491064    -1.08970
O1302       O  0.35484133  0.65537871  0.30202931    -1.08470
C1303       C  0.29657652  0.57287411  0.26870630     1.06190
C1304       C  0.43038490  0.58892725  0.36288461     1.08810
C1305       C  0.33088951  0.71225556  0.26862543     1.06360
C1306       C  0.21312845  0.57967182  0.36340931     1.06720
C1307       C  0.38251955  0.60164691  0.42992541     1.06310
C1308       C  0.49938898  0.73470303  0.33688314     1.05860
C1309       C  0.43451214  0.68021703  0.26743088     1.06280
C1310       C  0.29107473  0.51134377  0.33724491     1.05800
H1311       H  0.44199928  0.66906158  0.32550505     0.32480
O1312       O  0.41800785  0.66777097  0.33271888    -1.30070
H1313       H  0.28200271  0.56835732  0.32609781     0.32500
O1314       O  0.30470029  0.59259243  0.33308311    -1.31450
O1315       O  0.22467932  0.94121353  0.71250676    -0.86890
O1316       O  0.24840702  0.80859245  0.61214485    -0.87060
O1317       O  0.31071038  0.90780357  0.65345839    -0.88720
O1318       O  0.19831198  0.89132327  0.61202319    -0.87480
O1319       O  0.13075643  0.84383284  0.61045591    -0.87070
O1320       O  0.31884489  0.88305117  0.69416338    -0.88440
O1321       O  0.26845347  0.87611803  0.61042258    -0.86920
O1322       O  0.26005312  0.94940424  0.67296281    -0.86510
Zr1323     Zr  0.23778113  0.88396515  0.65047472     2.84310
O1324       O  0.18757379  0.82033310  0.63557747    -1.08480
O1325       O  0.23641664  0.88368711  0.69807855    -1.09210
C1326       C  0.25457373  0.96236326  0.69622059     1.06220
C1327       C  0.26763082  0.84454166  0.60095813     1.06160
C1328       C  0.33211670  0.90073765  0.67071303     1.09140
C1329       C  0.16233653  0.87440328  0.60082022     1.06920
H1330       H  0.27497721  0.83461344  0.65892159     0.32480
O1331       O  0.25077982  0.83304840  0.66598851    -1.29430
H1332       H  0.17403831  0.89357667  0.65898144     0.32150
O1333       O  0.17540968  0.87090503  0.66619440    -1.31110
O1334       O  0.15205957  0.69746383  0.65394091    -0.86880
O1335       O  0.12489492  0.82909790  0.75154414    -0.88380
O1336       O  0.27199695  0.78440289  0.71277376    -0.86960
O1337       O  0.11438047  0.75895679  0.61326048    -0.87010
O1338       O  0.10075698  0.85615818  0.65353070    -0.86720
O1339       O  0.25966342  0.88401344  0.75100083    -0.86530
O1340       O  0.18036574  0.74947423  0.75143162    -0.86900
O1341       O  0.06744202  0.73643210  0.71280074    -0.86360
O1342       O  0.24700028  0.79914907  0.75426480    -0.87430
O1343       O  0.05899115  0.76348913  0.67327028    -0.86580
O1344       O  0.24383455  0.74803083  0.67372398    -0.86980
O1345       O  0.21014834  0.90096419  0.75446312    -0.86700
O1346       O  0.12619885  0.88963032  0.69393687    -0.86350
O1347       O  0.16193356  0.73919602  0.61091228    -0.86760
O1348       O  0.11899128  0.68961966  0.69451118    -0.87060
O1349       O  0.10801637  0.76253873  0.75470012    -0.88400
Zr1350     Zr  0.20119778  0.77037289  0.65067227     2.83100
Zr1351     Zr  0.17252350  0.86938160  0.71402880     2.83500
Zr1352     Zr  0.25218888  0.83627342  0.71379445     2.84090
Zr1353     Zr  0.12421525  0.80691391  0.65102772     2.83360
Zr1354     Zr  0.13935201  0.75642289  0.71423424     2.84220
O1355       O  0.12475486  0.80599959  0.69861382    -1.08970
O1356       O  0.20244259  0.77222986  0.69825293    -1.08470
C1357       C  0.12354998  0.67612976  0.67119319     1.06190
C1358       C  0.10715352  0.79366356  0.76339495     1.08810
C1359       C  0.26260311  0.75400686  0.69690408     1.06360
C1360       C  0.13066574  0.73955314  0.60195968     1.06720
C1361       C  0.10843398  0.88506062  0.67047054     1.06310
C1362       C  0.24227642  0.90186671  0.76295535     1.05860
C1363       C  0.21594415  0.76716307  0.76310129     1.06280
C1364       C  0.04620041  0.74507553  0.69652360     1.05800
H1365       H  0.18826327  0.82079624  0.74921343     0.32480
O1366       O  0.18811912  0.82074425  0.72950329    -1.30070
H1367       H  0.11473581  0.73334843  0.65953403     0.32500
O1368       O  0.13749158  0.75760620  0.66645162    -1.31450
O1369       O  0.19782080  0.75843182  0.11422892    -0.86890
O1370       O  0.06665412  0.78624189  0.21209276    -0.87060
O1371       O  0.10763957  0.70196502  0.15228657    -0.88720
O1372       O  0.11845990  0.81380248  0.11388779    -0.87480
O1373       O  0.16808585  0.88052468  0.11129046    -0.87070
O1374       O  0.13562891  0.69323549  0.19130293    -0.88440
O1375       O  0.05856426  0.75274333  0.17167487    -0.86920
O1376       O  0.13117727  0.74126382  0.11115534    -0.86510
Zr1377     Zr  0.12534222  0.77335907  0.15144084     2.84310
O1378       O  0.14140465  0.83659239  0.16739240    -1.08480
O1379       O  0.17512404  0.75957618  0.16735043    -1.09210
C1380       C  0.16228210  0.74024444  0.10251577     1.06220
C1381       C  0.04528611  0.75740100  0.19508827     1.06160
C1382       C  0.11775191  0.68107163  0.16781186     1.09140
C1383       C  0.13633266  0.84936477  0.10224092     1.06920
H1384       H  0.10235002  0.74851544  0.20624602     0.32480
O1385       O  0.12652067  0.77130546  0.19926272    -1.29430
H1386       H  0.18989131  0.82256007  0.11639136     0.32150
O1387       O  0.18970573  0.82239377  0.13610313    -1.31110
O1388       O  0.17859210  0.88200327  0.25337249    -0.86880
O1389       O  0.31012439  0.85781936  0.15307706    -0.88380
O1390       O  0.12728079  0.74793876  0.25268342    -0.86960
O1391       O  0.15362624  0.90633123  0.15319070    -0.87010
O1392       O  0.25389588  0.89555564  0.11465372    -0.86720
O1393       O  0.22470675  0.73477515  0.21215332    -0.86530
O1394       O  0.26247659  0.83350728  0.25331248    -0.86900
O1395       O  0.27817914  0.94465521  0.21240428    -0.86360
O1396       O  0.21451297  0.76615497  0.25508468    -0.87430
O1397       O  0.25196136  0.95301678  0.17241499    -0.86580
O1398       O  0.10785456  0.79580123  0.25470890    -0.86980
O1399       O  0.25791826  0.75984570  0.17155621    -0.86700
O1400       O  0.27026842  0.84561592  0.11124187    -0.86350
O1401       O  0.11780952  0.87854960  0.19251189    -0.86760
O1402       O  0.24610352  0.90220754  0.25538554    -0.87060
O1403       O  0.31840757  0.89369655  0.19237974    -0.88400
Zr1404     Zr  0.13964137  0.83514287  0.21499840     2.83100
Zr1405     Zr  0.23825306  0.80665185  0.15143567     2.83500
Zr1406     Zr  0.17585764  0.75823215  0.21490263     2.84090
Zr1407     Zr  0.20551490  0.88659361  0.15189627     2.83360
Zr1408     Zr  0.25327709  0.87171263  0.21507215     2.84220
O1409       O  0.25282901  0.87054862  0.16745518    -1.08970
O1410       O  0.18964009  0.82168431  0.23026769    -1.08470
C1411       C  0.21441888  0.90124348  0.26471746     1.06190
C1412       C  0.33119574  0.88792539  0.16917148     1.08810
C1413       C  0.10794188  0.76447590  0.26385434     1.06360
C1414       C  0.12350306  0.89716183  0.16929356     1.06720
C1415       C  0.27171286  0.87806907  0.10277187     1.06310
C1416       C  0.25354053  0.74251212  0.19518289     1.05860
C1417       C  0.24550397  0.79763252  0.26453118     1.06280
C1418       C  0.27110823  0.96634700  0.19546218     1.05800
H1419       H  0.26253633  0.80806567  0.20645503     0.32480
O1420       O  0.23977217  0.80934687  0.19933541    -1.30070
H1421       H  0.20421326  0.90913172  0.20692925     0.32500
O1422       O  0.20240151  0.88489202  0.19973597    -1.31450
O1423       O  0.50890843  0.54802673  0.58750824    -0.86890
O1424       O  0.14196144  0.52437333  0.48683810    -0.87060
O1425       O  0.09221963  0.49832536  0.58701864    -0.88720
O1426       O  0.10806028  0.61030211  0.54610829    -0.87480
O1427       O  0.08316422  0.61853433  0.50546525    -0.87070
O1428       O  0.04476123  0.93079924  0.58871485    -0.88440
O1429       O  0.14983047  0.56005544  0.52615580    -0.86920
O1430       O  0.07647605  0.56812292  0.58898653    -0.86510
Zr1431     Zr  0.08438224  0.53766278  0.54876852     2.84310
O1432       O  0.08408007  0.53665043  0.50114908    -1.08480
O1433       O  0.02080915  0.98757738  0.56379653    -1.09210
C1434       C  0.04489859  0.56714019  0.59864989     1.06220
C1435       C  0.16302389  0.55433685  0.50306473     1.06160
C1436       C  0.07544500  0.96237472  0.59821445     1.09140
C1437       C  0.10049730  0.63151338  0.52905519     1.06920
H1438       H  0.09405588  0.97399377  0.54022356     0.32480
O1439       O  0.07135493  0.97538360  0.53308283    -1.29430
H1440       H  0.03471157  0.57449894  0.54043027     0.32150
O1441       O  0.03332619  0.55046767  0.53322389    -1.31110
O1442       O  0.02977025  0.92545617  0.44769043    -0.86880
O1443       O  0.39786945  0.95205638  0.54564474    -0.88380
O1444       O  0.05667776  0.90076221  0.54560363    -0.86960
O1445       O  0.08488230  0.56124336  0.44803270    -0.87010
O1446       O  0.48511303  0.57269137  0.48693476    -0.86720
O1447       O  0.46008537  0.91465428  0.58689348    -0.86530
O1448       O  0.43722743  0.86771682  0.48629728    -0.86900
O1449       O  0.44815006  0.97917872  0.44802229    -0.86360
O1450       O  0.46459300  0.85930422  0.52568127    -0.87430
O1451       O  0.49781008  0.54575639  0.44507610    -0.86580
O1452       O  0.09020358  0.92634695  0.50519624    -0.86980
O1453       O  0.44008932  0.96209438  0.58877696    -0.86700
O1454       O  0.44872057  0.54427466  0.52599014    -0.86350
O1455       O  0.10229504  0.51197325  0.44525039    -0.86760
O1456       O  0.46309100  0.90830517  0.44471700    -0.87060
O1457       O  0.39009983  0.91899552  0.50510170    -0.88400
Zr1458     Zr  0.06996712  0.97288789  0.48522765     2.83100
Zr1459     Zr  0.47076357  0.00113837  0.54879177     2.83500
Zr1460     Zr  0.00737322  0.92422298  0.54842763     2.84090
Zr1461     Zr  0.03647989  0.55224835  0.48533426     2.83360
Zr1462     Zr  0.45682101  0.93943633  0.48522547     2.84220
O1463       O  0.47254393  0.00250570  0.50115486    -1.08970
O1464       O  0.00661085  0.92519033  0.50083410    -1.08470
C1465       C  0.99428779  0.90766484  0.43591888     1.06190
C1466       C  0.37661363  0.92348938  0.52843606     1.08810
C1467       C  0.08552739  0.90834742  0.52860013     1.06360
C1468       C  0.10319067  0.54400639  0.43646929     1.06720
C1469       C  0.45477117  0.56328628  0.50288787     1.06310
C1470       C  0.44089640  0.93125497  0.59815683     1.05860
C1471       C  0.44617455  0.84657465  0.50242407     1.06280
C1472       C  0.46561121  0.01469152  0.43634161     1.05800
H1473       H  0.43373310  0.91460625  0.54012489     0.32480
O1474       O  0.45789834  0.93735575  0.53307388    -1.30070
H1475       H  0.02114148  0.98847562  0.44999002     0.32500
O1476       O  0.02110984  0.98825392  0.46970260    -1.31450
C1477       C  0.07624213  0.62406132  0.83205120    -0.09560
C1478       C  0.06617530  0.62980669  0.85832899     0.06640
C1479       C  0.09455108  0.66181389  0.87474405    -0.03320
C1480       C  0.13312790  0.68695436  0.86479680    -0.07770
C1481       C  0.14332709  0.68091591  0.83862094     0.05750
C1482       C  0.11468479  0.64939173  0.82202849    -0.02800
Br1483     Br  0.12648993  0.63866233  0.78592499    -0.02490
H1484       H  0.05450749  0.59916968  0.81965425     0.09670
H1485       H  0.15493644  0.71176133  0.87721450     0.07680
Br1486     Br  0.08206970  0.67328160  0.91049392    -0.02920
C1487       C  0.02404029  0.74875754  0.04333526    -0.09560
C1488       C  0.05326242  0.77669339  0.02526766     0.06640
C1489       C  0.05533163  0.76542911  0.99838261    -0.03320
C1490       C  0.02818603  0.72639536  0.98998032    -0.07770
C1491       C  0.99857231  0.69862778  0.00794364     0.05750
C1492       C  0.99683960  0.70977828  0.03493714    -0.02800
Br1493     Br  0.95704705  0.67408109  0.06066862    -0.02490
H1494       H  0.02227346  0.75749462  0.06410683     0.09670
H1495       H  0.52980843  0.71771544  0.96916603     0.07680
Br1496     Br  0.09495508  0.80149089  0.97273059    -0.02920
C1497       C  0.42678915  0.82942150  0.20742610    -0.09560
C1498       C  0.40006219  0.79684351  0.19096164     0.06640
C1499       C  0.41230525  0.79045503  0.16542988    -0.03320
C1500       C  0.45143889  0.81656745  0.15683402    -0.07770
C1501       C  0.47822465  0.84895104  0.17340265     0.05750
C1502       C  0.46596188  0.85539916  0.19888156    -0.02800
Br1503     Br  0.50093879  0.89952711  0.22218564    -0.02490
H1504       H  0.41719390  0.83418866  0.22720836     0.09670
H1505       H  0.46110074  0.81179665  0.13707725     0.07680
Br1506     Br  0.37765685  0.74590987  0.14229123    -0.02920
C1507       C  0.29937545  0.01821061  0.53151269    -0.09560
C1508       C  0.30890611  0.51395808  0.50473863     0.06640
C1509       C  0.27980256  0.48345132  0.48771192    -0.03320
C1510       C  0.24147869  0.95767019  0.49786103    -0.07770
C1511       C  0.23206453  0.96167682  0.52474261     0.05750
C1512       C  0.26110210  0.99245261  0.54165415    -0.02800
Br1513     Br  0.25028415  0.00162400  0.57846655    -0.02490
H1514       H  0.32157525  0.04207037  0.54436021     0.09670
H1515       H  0.21934394  0.93370389  0.48505154     0.07680
Br1516     Br  0.29095580  0.47422841  0.45095500    -0.02920
C1517       C  0.21974882  0.59883447  0.66809724    -0.09560
C1518       C  0.21416730  0.60839599  0.69456170     0.06640
C1519       C  0.18313528  0.57923661  0.71123013    -0.03320
C1520       C  0.15781639  0.54094858  0.70096241    -0.07770
C1521       C  0.16306362  0.53154313  0.67436704     0.05750
C1522       C  0.19462103  0.56046368  0.65790074    -0.02800
Br1523     Br  0.20559003  0.54919238  0.62170321    -0.02490
H1524       H  0.24417821  0.62103209  0.65559715     0.09670
H1525       H  0.13331096  0.51881366  0.71344351     0.07680
Br1526     Br  0.17291905  0.59008749  0.74773537    -0.02920
C1527       C  0.36562037  0.87594812  0.34585676    -0.09560
C1528       C  0.32478494  0.86496181  0.34500124     0.06640
C1529       C  0.31299843  0.89354042  0.35075258    -0.03320
C1530       C  0.34223559  0.93286120  0.35712264    -0.07770
C1531       C  0.38309444  0.94391826  0.35785163     0.05750
C1532       C  0.39488893  0.91530973  0.35217204    -0.02800
Br1533     Br  0.45053529  0.92905327  0.35201275    -0.02490
H1534       H  0.37483271  0.85427162  0.34051724     0.09670
H1535       H  0.33300543  0.95456593  0.36233593     0.07680
Br1536     Br  0.25740630  0.87994420  0.35039364    -0.02920
C1537       C  0.44368288  0.54424785  0.19710243    -0.09560
C1538       C  0.42694893  0.53394670  0.17102383     0.06640
C1539       C  0.42331097  0.56238427  0.15468364    -0.03320
C1540       C  0.43636815  0.60078547  0.16484695    -0.07770
C1541       C  0.45269857  0.61093628  0.19105040     0.05750
C1542       C  0.45689450  0.58268133  0.20721260    -0.02800
Br1543     Br  0.48135749  0.59514991  0.24284179    -0.02490
H1544       H  0.44718150  0.52258982  0.20934844     0.09670
H1545       H  0.43274482  0.62239717  0.15263686     0.07680
Br1546     Br  0.39941544  0.55010568  0.11888036    -0.02920
C1547       C  0.14351619  0.66532567  0.35607141    -0.09560
C1548       C  0.11377134  0.62445639  0.35703798     0.06640
C1549       C  0.07329268  0.61236106  0.35118584    -0.03320
C1550       C  0.06308868  0.64138930  0.34440244    -0.07770
C1551       C  0.09291662  0.68222906  0.34335673     0.05750
C1552       C  0.13331968  0.69429955  0.34932518    -0.02800
Br1553     Br  0.17522417  0.74997036  0.34878634    -0.02490
H1554       H  0.17449722  0.67479052  0.36143005     0.09670
H1555       H  0.03216039  0.63200887  0.33894849     0.07680
Br1556     Br  0.03148131  0.55665864  0.35149386    -0.02920
C1557       C  0.23575514  0.98099289  0.01266807    -0.09560
C1558       C  0.26514242  0.52201044  0.01332928     0.06640
C1559       C  0.30523820  0.53406108  0.02031442    -0.03320
C1560       C  0.31550141  0.50486271  0.02645127    -0.07770
C1561       C  0.28613732  0.96383336  0.02558086     0.05750
C1562       C  0.24603762  0.95181186  0.01864086    -0.02800
Br1563     Br  0.20484856  0.89599016  0.01628917    -0.02490
H1564       H  0.20515778  0.97164353  0.00633090     0.09670
H1565       H  0.34614847  0.51415240  0.03261863     0.07680
Br1566     Br  0.34653852  0.58987944  0.02182109    -0.02920
C1567       C  0.29789088  0.72375705  0.51874127    -0.09560
C1568       C  0.25966753  0.69916632  0.50745008     0.06640
C1569       C  0.23344298  0.71431789  0.50276089    -0.03320
C1570       C  0.24537708  0.75371112  0.51016819    -0.07770
C1571       C  0.28343913  0.77818064  0.52167350     0.05750
C1572       C  0.30984262  0.76318709  0.52612168    -0.02800
Br1573     Br  0.36117477  0.79451458  0.54376308    -0.02490
H1574       H  0.31836810  0.71224865  0.52168422     0.09670
H1575       H  0.22483579  0.76516474  0.50732575     0.07680
Br1576     Br  0.18221342  0.68320863  0.48496181    -0.02920
C1577       C  0.46345174  0.86295145  0.68942241    -0.09560
C1578       C  0.42554357  0.84873151  0.67748139     0.06640
C1579       C  0.39982859  0.80719757  0.67295351    -0.03320
C1580       C  0.41234163  0.78023954  0.68061386    -0.07770
C1581       C  0.45040770  0.79449733  0.69233320     0.05750
C1582       C  0.47591224  0.83598942  0.69715840    -0.02800
Br1583     Br  0.02684592  0.85688146  0.71550143    -0.02490
H1584       H  0.48345791  0.89505016  0.69237291     0.09670
H1585       H  0.39238455  0.74814858  0.67759145     0.07680
Br1586     Br  0.34859569  0.78628537  0.65501142    -0.02920
C1587       C  0.09128396  0.89340533  0.82139006    -0.09560
C1588       C  0.09376778  0.86607558  0.83939461     0.06640
C1589       C  0.10773666  0.87769898  0.86612910    -0.03320
C1590       C  0.11922164  0.91658136  0.87444221    -0.07770
C1591       C  0.11633274  0.94381094  0.85654972     0.05750
C1592       C  0.10268270  0.93228881  0.82972620    -0.02800
Br1593     Br  0.09743672  0.96748718  0.80417758    -0.02490
H1594       H  0.08032711  0.88431881  0.80072331     0.09670
H1595       H  0.13020078  0.92562018  0.89510912     0.07680
Br1596     Br  0.11295561  0.84244621  0.89164701    -0.02920
C1597       C  0.21166824  0.61863047  0.17520304    -0.09560
C1598       C  0.17692580  0.58993914  0.16107408     0.06640
C1599       C  0.17715415  0.55484520  0.15149517    -0.03320
C1600       C  0.20175358  0.54282447  0.16422136    -0.07770
C1601       C  0.23283288  0.56939282  0.18134083     0.05750
C1602       C  0.24058717  0.60913067  0.18382603    -0.02800
Br1603     Br  0.29187745  0.65136493  0.19632030    -0.02490
H1604       H  0.21773466  0.64898934  0.17873968     0.09670
H1605       H  0.19776658  0.51342628  0.15947733     0.07680
Br1606     Br  0.15924322  0.53054646  0.11609063    -0.02920
C1607       C  0.07690892  0.91041681  0.33341828    -0.09560
C1608       C  0.06738683  0.89565765  0.36003436     0.06640
C1609       C  0.09661049  0.89393463  0.37671373    -0.03320
C1610       C  0.13477880  0.90660918  0.36641860    -0.07770
C1611       C  0.14417479  0.92092186  0.33974621     0.05750
C1612       C  0.11529088  0.92346244  0.32317405    -0.02800
Br1613     Br  0.12683856  0.94561821  0.28687176    -0.02490
H1614       H  0.05470967  0.91251916  0.32084722     0.09670
H1615       H  0.15687223  0.90429164  0.37898127     0.07680
Br1616     Br  0.08612812  0.87338700  0.41330868    -0.02920
C1617       C  0.29829900  0.72870423  0.03188211    -0.09560
C1618       C  0.31184673  0.75248420  0.00841458     0.06640
C1619       C  0.28643638  0.76295210  0.99409523    -0.03320
C1620       C  0.24740252  0.74899814  0.00330354    -0.07770
C1621       C  0.23376174  0.72493492  0.02661461     0.05750
C1622       C  0.25923934  0.71474082  0.04110111    -0.02800
Br1623     Br  0.24172690  0.68125938  0.07315944    -0.02490
H1624       H  0.31769329  0.72007651  0.04249411     0.09670
H1625       H  0.22792771  0.75746429  0.99262731     0.07680
Br1626     Br  0.30370939  0.79623654  0.96201463    -0.02920
C1627       C  0.47907307  0.71901701  0.52784183    -0.09560
C1628       C  0.49297641  0.74889968  0.50777295     0.06640
C1629       C  0.03164206  0.76425011  0.49638040    -0.03320
C1630       C  0.05620037  0.74954770  0.50520719    -0.07770
C1631       C  0.04247876  0.71989652  0.52535904     0.05750
C1632       C  0.00383300  0.70449986  0.53687938    -0.02800
Br1633     Br  0.48405981  0.66411087  0.56500984    -0.02490
H1634       H  0.44891572  0.70671248  0.53611730     0.09670
H1635       H  0.08641598  0.76202798  0.49697657     0.07680
Br1636     Br  0.05215533  0.80537206  0.46893185    -0.02920
C1637       C  0.38959868  0.90677857  0.82908160    -0.09560
C1638       C  0.38724378  0.89591567  0.85650609     0.06640
C1639       C  0.35786553  0.89642291  0.87374918    -0.03320
C1640       C  0.33194717  0.90850485  0.86336653    -0.07770
C1641       C  0.33441300  0.91957767  0.83602915     0.05750
C1642       C  0.36351328  0.91880004  0.81866825    -0.02800
Br1643     Br  0.37042316  0.93533861  0.78100936    -0.02490
H1644       H  0.41237036  0.90678345  0.81594629     0.09670
H1645       H  0.30913576  0.90840713  0.87651889     0.07680
Br1646     Br  0.35016493  0.87962046  0.91134109    -0.02920
C1647       C  0.46674366  0.60895239  0.67706372    -0.09560
C1648       C  0.47876427  0.57998920  0.67929443     0.06640
C1649       C  0.45127146  0.54056764  0.68788163    -0.03320
C1650       C  0.41186778  0.53044910  0.69398897    -0.07770
C1651       C  0.39975417  0.55932372  0.69155482     0.05750
C1652       C  0.42732739  0.59883216  0.68312629    -0.02800
Br1653     Br  0.41204223  0.63927680  0.67893715    -0.02490
H1654       H  0.48766022  0.63899573  0.66957194     0.09670
H1655       H  0.39089406  0.50033715  0.70134084     0.07680
Br1656     Br  0.46651642  0.50006017  0.69166761    -0.02920
C1657       C  0.78851123  0.50216271  0.70610887     0.02730
C1658       C  0.82519709  0.01835505  0.69174393    -0.13420
C1659       C  0.86069629  0.04941219  0.70275909     0.00230
C1660       C  0.86051455  0.06641907  0.72758554    -0.11950
C1661       C  0.82521103  0.05217741  0.74265637     0.02720
C1662       C  0.78858738  0.01974999  0.73186881    -0.11370
H1663       H  0.82734133  0.50491055  0.67282113     0.08310
H1664       H  0.88894039  0.09035730  0.73557054     0.05840
H1665       H  0.76116037  0.00735354  0.74382529     0.05690
C1666       C  0.58912379  0.13608966  0.66204996     0.02730
C1667       C  0.55337484  0.11969055  0.67753932    -0.13420
C1668       C  0.51698875  0.08934261  0.66695620     0.00230
C1669       C  0.51536355  0.07300279  0.64148635    -0.11950
C1670       C  0.54972085  0.08726272  0.62546340     0.02720
C1671       C  0.58714045  0.11914101  0.63574496    -0.11370
H1672       H  0.55256792  0.13270792  0.69699697     0.08310
H1673       H  0.98637863  0.04963194  0.63382396     0.05840
H1674       H  0.61378255  0.13173160  0.62296156     0.05690
C1675       C  0.77632229  0.47396725  0.82500451     0.02730
C1676       C  0.80072460  0.46053005  0.83731638    -0.13420
C1677       C  0.80490746  0.42969036  0.82567533     0.00230
C1678       C  0.78227509  0.40910475  0.80324662    -0.11950
C1679       C  0.75982551  0.42259240  0.78915636     0.02720
C1680       C  0.75613973  0.45506898  0.80018332    -0.11370
H1681       H  0.81912245  0.47586611  0.85497656     0.08310
H1682       H  0.78422861  0.38340033  0.79590873     0.05840
H1683       H  0.73921100  0.46629330  0.78919274     0.05690
C1684       C  0.94129878  0.33844150  0.87113723     0.02730
C1685       C  0.92018233  0.35406782  0.85676630    -0.13420
C1686       C  0.91667325  0.38596996  0.86734695     0.00230
C1687       C  0.93753373  0.40583446  0.89055234    -0.11950
C1688       C  0.95569742  0.38979402  0.90670360     0.02720
C1689       C  0.95857913  0.35625886  0.89683762    -0.11370
H1690       H  0.90318068  0.33932633  0.83850681     0.08310
H1691       H  0.93625532  0.43217439  0.89729293     0.05840
H1692       H  0.97234336  0.34320777  0.90947440     0.05690
C1693       C  0.94038751  0.30698834  0.49250475     0.02730
C1694       C  0.96036465  0.29046143  0.50712241    -0.13420
C1695       C  0.96519149  0.25988561  0.49591357     0.00230
C1696       C  0.94841083  0.24311578  0.47100557    -0.11950
C1697       C  0.92774399  0.25763646  0.45582073     0.02720
C1698       C  0.92338508  0.28986171  0.46658567    -0.11370
H1699       H  0.97540876  0.30340128  0.52630981     0.08310
H1700       H  0.95263684  0.21895249  0.46321679     0.05840
H1701       H  0.90849930  0.30235002  0.45456650     0.05690
C1702       C  0.60380658  0.17005350  0.53894769     0.02730
C1703       C  0.62079434  0.18801526  0.56465706    -0.13420
C1704       C  0.61310082  0.21783357  0.57603759     0.00230
C1705       C  0.58808332  0.22821180  0.56205336    -0.11950
C1706       C  0.57124335  0.21047772  0.53738574     0.02720
C1707       C  0.58015751  0.18318108  0.52520696    -0.11370
H1708       H  0.63840522  0.17795714  0.57604470     0.08310
H1709       H  0.58111417  0.25030774  0.57031445     0.05840
H1710       H  0.56539401  0.16973406  0.50603713     0.05690
C1711       C  0.92321484  0.30423126  0.99418065     0.02730
C1712       C  0.88654723  0.29016725  0.00834262    -0.13420
C1713       C  0.85024696  0.26140341  0.99678177     0.00230
C1714       C  0.84941008  0.24306422  0.97238904    -0.11950
C1715       C  0.88446349  0.25521596  0.95757210     0.02720
C1716       C  0.92196243  0.28629179  0.96838649    -0.11370
H1717       H  0.88522153  0.30402699  0.02729634     0.08310
H1718       H  0.82045590  0.21979739  0.96460476     0.05840
H1719       H  0.94931555  0.29733927  0.95647662     0.05690
C1720       C  0.62224679  0.16876672  0.03986547     0.02730
C1721       C  0.65934141  0.18416718  0.02610203    -0.13420
C1722       C  0.69466244  0.21460362  0.03762213     0.00230
C1723       C  0.69399192  0.23293486  0.06162942    -0.11950
C1724       C  0.65846823  0.21921936  0.07625870     0.02720
C1725       C  0.62190629  0.18677099  0.06537234    -0.11370
H1726       H  0.66187755  0.17036817  0.00746572     0.08310
H1727       H  0.72229850  0.25741336  0.06936416     0.05840
H1728       H  0.59421509  0.17480458  0.07699791     0.05690
C1729       C  0.95559297  0.33658222  0.37335996     0.02730
C1730       C  0.99286582  0.35253892  0.35970072    -0.13420
C1731       C  0.52773842  0.38439518  0.37083293     0.00230
C1732       C  0.52594347  0.40346588  0.39416865    -0.11950
C1733       C  0.99071278  0.38778937  0.40932738     0.02720
C1734       C  0.95474928  0.35437505  0.39877770    -0.11370
H1735       H  0.99587906  0.33836249  0.34141512     0.08310
H1736       H  0.55346412  0.42952999  0.40142689     0.05840
H1737       H  0.92716880  0.34159113  0.41057983     0.05690
C1738       C  0.71862290  0.42214966  0.29103752     0.02730
C1739       C  0.68325879  0.40978758  0.30549382    -0.13420
C1740       C  0.68301186  0.42983004  0.32876198     0.00230
C1741       C  0.71893156  0.45917243  0.34048803    -0.11950
C1742       C  0.75611921  0.47234511  0.32730528     0.02720
C1743       C  0.75573377  0.45373921  0.30195002    -0.11370
H1744       H  0.65475865  0.38536199  0.29798801     0.08310
H1745       H  0.71701308  0.47401644  0.35878029     0.05840
H1746       H  0.78343382  0.46456041  0.29048432     0.05690
C1747       C  0.61416626  0.14292858  0.15666078     0.02730
C1748       C  0.64151480  0.13124785  0.16666282    -0.13420
C1749       C  0.64310706  0.09814790  0.15548591     0.00230
C1750       C  0.61170368  0.07294576  0.13839459    -0.11950
C1751       C  0.59118393  0.08774997  0.12350407     0.02720
C1752       C  0.59097490  0.12258228  0.13317487    -0.11370
H1753       H  0.66214502  0.14878384  0.18274974     0.08310
H1754       H  0.60448715  0.04241622  0.13484129     0.05840
H1755       H  0.57393807  0.13392664  0.12245474     0.05690
C1756       C  0.77835334  0.50685641  0.20473987     0.02730
C1757       C  0.76495901  0.02699362  0.18743945    -0.13420
C1758       C  0.75483932  0.05471528  0.19788572     0.00230
C1759       C  0.76128444  0.06528050  0.22537469    -0.11950
C1760       C  0.78098760  0.05152424  0.24221928     0.02720
C1761       C  0.78854815  0.02093690  0.23214799    -0.11370
H1762       H  0.75898520  0.51860577  0.16612428     0.08310
H1763       H  0.75207028  0.08575082  0.23346550     0.05840
H1764       H  0.80070608  0.00732967  0.24573322     0.05690
C1765       C  0.53648708  0.25423878  0.82622094     0.02730
C1766       C  0.55435384  0.25369925  0.80075938    -0.13420
C1767       C  0.58703630  0.29001054  0.78995079     0.00230
C1768       C  0.60186412  0.32535849  0.80489692    -0.11950
C1769       C  0.58353336  0.32654339  0.82884513     0.02720
C1770       C  0.55191441  0.29140603  0.83986720    -0.11370
H1771       H  0.54199348  0.22607625  0.78903529     0.08310
H1772       H  0.62707542  0.35325706  0.79727391     0.05840
H1773       H  0.53734209  0.29412001  0.85804278     0.05690
C1774       C  0.67145779  0.05536806  0.87097300     0.02730
C1775       C  0.65638810  0.01872056  0.85667485    -0.13420
C1776       C  0.62541203  0.48285759  0.86747446     0.00230
C1777       C  0.60706363  0.48285069  0.89176121    -0.11950
C1778       C  0.62160985  0.01756353  0.90730814     0.02720
C1779       C  0.65380684  0.05452263  0.89679722    -0.11370
H1780       H  0.67106634  0.01694684  0.83825858     0.08310
H1781       H  0.58232109  0.45451066  0.89923375     0.05840
H1782       H  0.66609903  0.08164542  0.90906679     0.05690
C1783       C  0.87171702  0.40563589  0.66139621     0.02730
C1784       C  0.88702629  0.38480844  0.67637273    -0.13420
C1785       C  0.91630881  0.37769624  0.66526767     0.00230
C1786       C  0.93327774  0.39330741  0.64011040    -0.11950
C1787       C  0.92028140  0.41509520  0.62469937     0.02720
C1788       C  0.88904791  0.42131883  0.63529195    -0.11370
H1789       H  0.87381211  0.37060784  0.69572845     0.08310
H1790       H  0.95626103  0.38728648  0.63229419     0.05840
H1791       H  0.87730593  0.43659200  0.62292871     0.05690
C1792       C  0.50661551  0.23940176  0.70641607     0.02730
C1793       C  0.49075638  0.26034508  0.69219108    -0.13420
C1794       C  0.96043034  0.26552089  0.70356919     0.00230
C1795       C  0.94319654  0.24799152  0.72824169    -0.11950
C1796       C  0.95713523  0.22644695  0.74308396     0.02720
C1797       C  0.98914418  0.22186487  0.73215512    -0.11370
H1798       H  0.50410079  0.27591593  0.67321718     0.08310
H1799       H  0.91935862  0.25256178  0.73625270     0.05840
H1800       H  0.50130232  0.20648112  0.74397575     0.05690
C1801       C  0.70306446  0.08806374  0.49327833     0.02730
C1802       C  0.72069173  0.08816138  0.46750775    -0.13420
C1803       C  0.75321301  0.12479065  0.45672946     0.00230
C1804       C  0.76742663  0.16007364  0.47179071    -0.11950
C1805       C  0.75005174  0.16021169  0.49643167     0.02720
C1806       C  0.71938656  0.12469052  0.50767514    -0.11370
H1807       H  0.70826925  0.06075591  0.45555141     0.08310
H1808       H  0.79146362  0.18852400  0.46389605     0.05840
H1809       H  0.70600193  0.12687552  0.52661860     0.05690
C1810       C  0.83688111  0.38878521  0.53771193     0.02730
C1811       C  0.81958879  0.38690291  0.56387277    -0.13420
C1812       C  0.78825635  0.34931418  0.57438878     0.00230
C1813       C  0.77518418  0.31467134  0.55887516    -0.11950
C1814       C  0.79217154  0.31626448  0.53371383     0.02720
C1815       C  0.82142231  0.35276931  0.52263674    -0.11370
H1816       H  0.83144905  0.41380499  0.57633947     0.08310
H1817       H  0.75223382  0.28555989  0.56665784     0.05840
H1818       H  0.83462813  0.35190306  0.50326956     0.05690
C1819       C  0.70717194  0.07420155  0.99544537     0.02730
C1820       C  0.72439511  0.05588112  0.01121874    -0.13420
C1821       C  0.75503966  0.05024561  0.00070398     0.00230
C1822       C  0.77067541  0.06428337  0.97494928    -0.11950
C1823       C  0.75565836  0.08343659  0.95867103     0.02720
C1824       C  0.72362046  0.08865148  0.96892636    -0.11370
H1825       H  0.71180983  0.04251932  0.03088464     0.08310
H1826       H  0.79414632  0.05889716  0.96726732     0.05840
H1827       H  0.71051293  0.10202009  0.95596485     0.05690
C1828       C  0.84156600  0.40753562  0.03939410     0.02730
C1829       C  0.82398330  0.38992974  0.06514163    -0.13420
C1830       C  0.79265733  0.39537642  0.07642445     0.00230
C1831       C  0.77963581  0.41795967  0.06191603    -0.11950
C1832       C  0.79632301  0.43491440  0.03694547     0.02720
C1833       C  0.82638426  0.42932881  0.02545962    -0.11370
H1834       H  0.83553135  0.37374515  0.07668406     0.08310
H1835       H  0.75653114  0.42336901  0.07028194     0.05840
H1836       H  0.83976650  0.44476693  0.00645453     0.05690
C1837       C  0.67303961  0.07306464  0.37318093     0.02730
C1838       C  0.65565514  0.09188622  0.35817327    -0.13420
C1839       C  0.62467264  0.09647799  0.36912300     0.00230
C1840       C  0.60893899  0.08093345  0.39456041    -0.11950
C1841       C  0.62373373  0.06067872  0.40995577     0.02720
C1842       C  0.65614941  0.05650654  0.39926773    -0.11370
H1843       H  0.66817809  0.10622527  0.33872610     0.08310
H1844       H  0.58526625  0.08570611  0.40262466     0.05840
H1845       H  0.66904371  0.04221938  0.41150901     0.05690
C1846       C  0.53858203  0.23891388  0.32715467     0.02730
C1847       C  0.55582363  0.25459739  0.30098955    -0.13420
C1848       C  0.58648600  0.24768541  0.29010084     0.00230
C1849       C  0.59868407  0.22499339  0.30517220    -0.11950
C1850       C  0.58272843  0.21035262  0.33072491     0.02720
C1851       C  0.55369768  0.21776106  0.34195995    -0.11370
H1852       H  0.54453756  0.27050704  0.28886531     0.08310
H1853       H  0.62092952  0.21817098  0.29700280     0.05840
H1854       H  0.54088219  0.20402971  0.36149964     0.05690
C1855       C  0.95533384  0.18470603  0.24095456     0.02730
C1856       C  0.94230393  0.14966091  0.22597751    -0.13420
C1857       C  0.96184014  0.14970987  0.20232020     0.00230
C1858       C  0.99168544  0.18570621  0.19096099    -0.11950
C1859       C  0.50580794  0.22260330  0.20478735     0.02720
C1860       C  0.98740618  0.22184249  0.23034879    -0.11370
H1861       H  0.91779887  0.12112552  0.23338324     0.08310
H1862       H  0.50621104  0.18394398  0.17245249     0.05840
H1863       H  0.49884754  0.24922018  0.24226283     0.05690
C1864       C  0.87049787  0.42184859  0.15892227     0.02730
C1865       C  0.88550402  0.45936482  0.17205280    -0.13420
C1866       C  0.91615022  0.49443496  0.16029062     0.00230
C1867       C  0.93507940  0.49279166  0.13684014    -0.11950
C1868       C  0.92081207  0.45697121  0.12247894     0.02720
C1869       C  0.88839625  0.42080990  0.13360208    -0.11370
H1870       H  0.87135433  0.46230349  0.19038439     0.08310
H1871       H  0.96022445  0.02065352  0.12911555     0.05840
H1872       H  0.87632797  0.39287815  0.12225554     0.05690
C1873       C  0.77017117  0.25411075  0.32828356     0.02730
C1874       C  0.79000354  0.29013569  0.34347621    -0.13420
C1875       C  0.79658384  0.32650517  0.33247200     0.00230
C1876       C  0.78224352  0.32778703  0.30677825    -0.11950
C1877       C  0.76123822  0.29307961  0.29122485     0.02720
C1878       C  0.75507898  0.25571396  0.30193627    -0.11370
H1879       H  0.80351908  0.29103705  0.36310359     0.08310
H1880       H  0.78843074  0.35674056  0.29870276     0.05840
H1881       H  0.74033539  0.22876156  0.28949488     0.05690
C1882       C  0.93634688  0.05514807  0.37284937     0.02730
C1883       C  0.91644375  0.01858793  0.35830097    -0.13420
C1884       C  0.91152676  0.48300515  0.36953613     0.00230
C1885       C  0.92767256  0.48312995  0.39481447    -0.11950
C1886       C  0.94879671  0.01846545  0.40981988     0.02720
C1887       C  0.95335749  0.05507661  0.39882988    -0.11370
H1888       H  0.90167734  0.01661742  0.33900896     0.08310
H1889       H  0.92265789  0.45467440  0.40308007     0.05840
H1890       H  0.96832658  0.08251668  0.41076338     0.05690
C1891       C  0.76827135  0.22024686  0.70717347     0.02730
C1892       C  0.78749940  0.22128773  0.73242448    -0.13420
C1893       C  0.78457515  0.18523547  0.74315034     0.00230
C1894       C  0.76394809  0.14976466  0.72837309    -0.11950
C1895       C  0.74268581  0.14795914  0.70525226     0.02720
C1896       C  0.74610069  0.18281554  0.69388922    -0.11370
H1897       H  0.80299621  0.24906467  0.74396832     0.08310
H1898       H  0.76215754  0.12212743  0.73568435     0.05840
H1899       H  0.72860651  0.17971329  0.67571137     0.05690
C1900       C  0.60409214  0.41991694  0.66073634     0.02730
C1901       C  0.58643894  0.42067527  0.63519953    -0.13420
C1902       C  0.59160252  0.45781270  0.62466108     0.00230
C1903       C  0.61345001  0.49277501  0.63970933    -0.11950
C1904       C  0.63332947  0.49278208  0.66317114     0.02720
C1905       C  0.62718681  0.45680913  0.67450702    -0.11370
H1906       H  0.57041898  0.39331453  0.62326578     0.08310
H1907       H  0.61719472  0.02124520  0.63243285     0.05840
H1908       H  0.64365424  0.45856486  0.69295120     0.05690
C1909       C  0.92100275  0.06899676  0.49264136     0.02730
C1910       C  0.88346700  0.04661721  0.50579935    -0.13420
C1911       C  0.84856285  0.04298309  0.49429714     0.00230
C1912       C  0.85048677  0.06442988  0.47122709    -0.11950
C1913       C  0.88602812  0.08508320  0.45648748     0.02720
C1914       C  0.92208077  0.08814492  0.46733732    -0.11370
H1915       H  0.88033424  0.02902619  0.52393227     0.08310
H1916       H  0.82286219  0.06259024  0.46383585     0.05840
H1917       H  0.94988931  0.10361219  0.45580598     0.05690
C1918       C  0.62022273  0.40356287  0.53825574     0.02730
C1919       C  0.62082881  0.38577467  0.56379786    -0.13420
C1920       C  0.65777364  0.39023118  0.57419529     0.00230
C1921       C  0.69264122  0.41125136  0.55890037    -0.11950
C1922       C  0.69303272  0.43172561  0.53563295     0.02720
C1923       C  0.65720577  0.42637992  0.52447209    -0.11370
H1924       H  0.59353797  0.37025028  0.57586730     0.08310
H1925       H  0.72088766  0.41427022  0.56602731     0.05840
H1926       H  0.65917644  0.44324021  0.50618657     0.05690
C1927       C  0.78865594  0.23928440  0.20538662     0.02730
C1928       C  0.82528068  0.26127427  0.19115416    -0.13420
C1929       C  0.86134173  0.26789017  0.20259580     0.00230
C1930       C  0.86178573  0.25097969  0.22739832    -0.11950
C1931       C  0.82676476  0.22931237  0.24247919     0.02720
C1932       C  0.78963991  0.22352659  0.23162192    -0.11370
H1933       H  0.82672901  0.27633824  0.17209144     0.08310
H1934       H  0.89043677  0.25577003  0.23514592     0.05840
H1935       H  0.76224094  0.20766521  0.24354695     0.05690
C1936       C  0.58954586  0.40262133  0.15918213     0.02730
C1937       C  0.55273248  0.38177010  0.17335690    -0.13420
C1938       C  0.51739709  0.37735444  0.16213905     0.00230
C1939       C  0.51789996  0.39529497  0.13761802    -0.11950
C1940       C  0.55304171  0.41571298  0.12247422     0.02720
C1941       C  0.58958314  0.41990439  0.13330505    -0.11370
H1942       H  0.55038645  0.36582560  0.19217850     0.08310
H1943       H  0.48972260  0.39186000  0.12994746     0.05840
H1944       H  0.61701167  0.43479110  0.12135212     0.05690
C1945       C  0.93888557  0.08663524  0.99395813     0.02730
C1946       C  0.96254142  0.12350124  0.00769526    -0.13420
C1947       C  0.96819369  0.15966225  0.99692667     0.00230
C1948       C  0.94895733  0.15986106  0.97307804    -0.11950
C1949       C  0.92665106  0.12487280  0.95804950     0.02720
C1950       C  0.92107186  0.08760246  0.96858023    -0.11370
H1951       H  0.97966718  0.12501945  0.02572183     0.08310
H1952       H  0.95311630  0.18841528  0.96564544     0.05840
H1953       H  0.90460171  0.06022444  0.95672018     0.05690
C1954       C  0.60496348  0.38838261  0.03932564     0.02730
C1955       C  0.62311724  0.38900990  0.06491762    -0.13420
C1956       C  0.62051508  0.35305993  0.07542648     0.00230
C1957       C  0.60159091  0.31805565  0.05996781    -0.11950
C1958       C  0.58201540  0.31654223  0.03592304     0.02720
C1959       C  0.58438975  0.35139645  0.02524193    -0.11370
H1960       H  0.63737836  0.41637423  0.07696020     0.08310
H1961       H  0.59988216  0.29050936  0.06739511     0.05840
H1962       H  0.56711195  0.34851783  0.00700261     0.05690
C1963       C  0.75509327  0.23491384  0.82571864     0.02730
C1964       C  0.71778755  0.21309669  0.83924098    -0.13420
C1965       C  0.68285006  0.20957968  0.82793573     0.00230
C1966       C  0.68443514  0.23039354  0.80460989    -0.11950
C1967       C  0.71974250  0.25066859  0.78961766     0.02720
C1968       C  0.75588378  0.25369330  0.80029519    -0.11370
H1969       H  0.71481004  0.19585540  0.85753169     0.08310
H1970       H  0.65671061  0.22840214  0.79728077     0.05840
H1971       H  0.78353067  0.26888964  0.78857632     0.05690
C1972       C  0.95449953  0.07014587  0.87170431     0.02730
C1973       C  0.99142576  0.09345252  0.85798773    -0.13420
C1974       C  0.52745478  0.09990551  0.86943329     0.00230
C1975       C  0.52756739  0.08020110  0.89295147    -0.11950
C1976       C  0.99254793  0.05800051  0.90786926     0.02720
C1977       C  0.95532136  0.05252773  0.89724454    -0.11370
H1978       H  0.99314573  0.10988317  0.83953004     0.08310
H1979       H  0.55613092  0.08430979  0.90034934     0.05840
H1980       H  0.92791802  0.03629863  0.90912718     0.05690
O1981       O  0.86455919  0.09078262  0.78090854    -0.86890
O1982       O  0.73243199  0.11852259  0.87862419    -0.87060
O1983       O  0.77157918  0.03377085  0.81952533    -0.88720
O1984       O  0.78391621  0.14614075  0.78125881    -0.87480
O1985       O  0.83341712  0.21280195  0.77826585    -0.87070
O1986       O  0.79873809  0.02520341  0.85901477    -0.88440
O1987       O  0.72452716  0.08512506  0.83819289    -0.86920
O1988       O  0.79793823  0.07372500  0.77795769    -0.86510
Zr1989     Zr  0.79126966  0.10542562  0.81835080     2.84310
O1990       O  0.80691969  0.16856078  0.83419494    -1.08480
O1991       O  0.84085859  0.09124300  0.83430150    -1.09210
C1992       C  0.82904878  0.07276552  0.76918177     1.06220
C1993       C  0.71115262  0.08983146  0.86151911     1.06160
C1994       C  0.78073664  0.01271273  0.83556340     1.09140
C1995       C  0.80142070  0.18165619  0.76954723     1.06920
H1996       H  0.76810845  0.08087976  0.87336820     0.32480
O1997       O  0.79227678  0.10354918  0.86624893    -1.29430
H1998       H  0.85554587  0.15439588  0.78324007     0.32150
O1999       O  0.85547797  0.15431744  0.80295216    -1.31110
O2000       O  0.84399289  0.21484249  0.92002536    -0.86880
O2001       O  0.97590658  0.19028475  0.82009208    -0.88380
O2002       O  0.79451311  0.08155112  0.92059936    -0.86960
O2003       O  0.81909031  0.23832256  0.81987783    -0.87010
O2004       O  0.91890621  0.22710322  0.78132845    -0.86720
O2005       O  0.89080098  0.06688448  0.87907771    -0.86530
O2006       O  0.92698550  0.16523338  0.92035859    -0.86900
O2007       O  0.94264841  0.27694446  0.87891347    -0.86360
O2008       O  0.87949380  0.09771901  0.92219680    -0.87430
O2009       O  0.91709812  0.28512051  0.83856768    -0.86580
O2010       O  0.77449928  0.12902543  0.92197254    -0.86980
O2011       O  0.92403163  0.09207401  0.83851200    -0.86700
O2012       O  0.93570542  0.17742977  0.77820837    -0.86350
O2013       O  0.78301228  0.21042725  0.85908395    -0.86760
O2014       O  0.91148429  0.23485582  0.92196831    -0.87060
O2015       O  0.98406138  0.22594262  0.85947797    -0.88400
Zr2016     Zr  0.80523004  0.16742245  0.88178644     2.83100
Zr2017     Zr  0.90407282  0.13870390  0.81847383     2.83500
Zr2018     Zr  0.84150261  0.09032010  0.88192885     2.84090
Zr2019     Zr  0.87092989  0.21845715  0.81864118     2.83360
Zr2020     Zr  0.91876494  0.20399229  0.88191249     2.84220
O2021       O  0.91842309  0.20265755  0.83430874    -1.08970
O2022       O  0.85516775  0.15389119  0.89700316    -1.08470
C2023       C  0.87989669  0.23414518  0.93126683     1.06190
C2024       C  0.99695191  0.22031282  0.83626150     1.08810
C2025       C  0.77546445  0.09845327  0.93171188     1.06360
C2026       C  0.78887422  0.22915492  0.83589217     1.06720
C2027       C  0.93672715  0.20958485  0.76954708     1.06310
C2028       C  0.91954476  0.07437291  0.86200417     1.05860
C2029       C  0.91025476  0.12935546  0.93163223     1.06280
C2030       C  0.93533703  0.29840319  0.86185452     1.05800
H2031       H  0.92813746  0.14007273  0.87352793     0.32480
O2032       O  0.90544857  0.14147007  0.86637061    -1.30070
H2033       H  0.86934616  0.24112119  0.87352959     0.32500
O2034       O  0.86783656  0.21697748  0.86643332    -1.31450
O2035       O  0.95313745  0.42781912  0.94481629    -0.86890
O2036       O  0.60679813  0.45153225  0.04585944    -0.87060
O2037       O  0.58299147  0.47724672  0.94546324    -0.88720
O2038       O  0.98705674  0.36488309  0.98681590    -0.87480
O2039       O  0.95388280  0.35636174  0.02740604    -0.87070
O2040       O  0.60306214  0.04475965  0.94375845    -0.88440
O2041       O  0.58041321  0.41634687  0.00614772    -0.86920
O2042       O  0.00043009  0.40754123  0.94357795    -0.86510
Zr2043     Zr  0.53659950  0.43785666  0.98412130     2.84310
O2044       O  0.53711712  0.43907733  0.03167695    -1.08480
O2045       O  0.52285026  0.48765034  0.96899704    -1.09210
C2046       C  0.97032005  0.40903430  0.93366861     1.06220
C2047       C  0.59857535  0.42188776  0.02950004     1.06160
C2048       C  0.60188490  0.51313323  0.93414684     1.09140
C2049       C  0.95832257  0.34335880  0.00388263     1.06920
H2050       H  0.60989043  0.50215822  0.99257918     0.32480
O2051       O  0.58565808  0.50050287  0.99965469    -1.29430
H2052       H  0.94961554  0.40018313  0.99194165     0.32150
O2053       O  0.97223149  0.42423184  0.99922711    -1.31110
O2054       O  0.59187390  0.04939971  0.08544832    -0.86880
O2055       O  0.93560955  0.02292690  0.98638272    -0.88380
O2056       O  0.64547902  0.07515168  0.98737743    -0.86960
O2057       O  0.01348175  0.41470439  0.08439334    -0.87010
O2058       O  0.90183294  0.40352961  0.04552773    -0.86720
O2059       O  0.53292464  0.05855499  0.94563804    -0.86530
O2060       O  0.55843079  0.10773874  0.04598366    -0.86900
O2061       O  0.95861288  0.99544442  0.08411131    -0.86360
O2062       O  0.59383430  0.11661815  0.00638309    -0.87430
O2063       O  0.94205430  0.42904425  0.08755567    -0.86580
O2064       O  0.65348189  0.04990301  0.02792601    -0.86980
O2065       O  0.96545024  0.01087708  0.94356347    -0.86700
O2066       O  0.89330813  0.42985701  0.00565515    -0.86350
O2067       O  0.58014288  0.46413260  0.08719475    -0.86760
O2068       O  0.54244266  0.06662310  0.08815704    -0.87060
O2069       O  0.95961398  0.05539629  0.02728320    -0.88400
Zr2070     Zr  0.58650362  0.50311997  0.04747693     2.83100
Zr2071     Zr  0.95898924  0.47346951  0.98369688     2.83500
Zr2072     Zr  0.57250400  0.05132663  0.98412983     2.84090
Zr2073     Zr  0.97356637  0.42288512  0.04708872     2.83360
Zr2074     Zr  0.50653837  0.03580371  0.04707066     2.84220
O2075       O  0.95924306  0.47248160  0.03126893    -1.08970
O2076       O  0.57091029  0.05075864  0.03174087    -1.08470
C2077       C  0.57406817  0.06705262  0.09721146     1.06190
C2078       C  0.94263497  0.05138842  0.00359472     1.08810
C2079       C  0.66694338  0.06810320  0.00461099     1.06360
C2080       C  0.54907058  0.43216037  0.09598110     1.06720
C2081       C  0.88066567  0.41217397  0.02918113     1.06310
C2082       C  0.49705467  0.04172499  0.93426766     1.05860
C2083       C  0.58828891  0.12919370  0.02975772     1.06280
C2084       C  0.94100120  0.46017008  0.09606725     1.05800
H2085       H  0.50834343  0.06029683  0.99220291     0.32480
O2086       O  0.50972419  0.03757585  0.99930245    -1.30070
H2087       H  0.52182316  0.48683624  0.08232986     0.32500
O2088       O  0.52205989  0.48712117  0.06262215    -1.31450
O2089       O  0.92844189  0.21919554  0.41768738    -0.86890
O2090       O  0.76763552  0.19076907  0.32068531    -0.87060
O2091       O  0.89153529  0.27585485  0.37928726    -0.88720
O2092       O  0.79195979  0.16427073  0.41851588    -0.87480
O2093       O  0.77456569  0.09756243  0.42129700    -0.87070
O2094       O  0.92786805  0.28397837  0.34024062    -0.88440
O2095       O  0.79345403  0.22433180  0.36104781    -0.86920
O2096       O  0.87870410  0.23593567  0.42085685    -0.86510
Zr2097     Zr  0.83978280  0.20392529  0.38087026     2.84310
O2098       O  0.79201377  0.14072775  0.36505992    -1.08480
O2099       O  0.90376970  0.21833742  0.36501892    -1.09210
C2100       C  0.91095794  0.23711618  0.42941785     1.06220
C2101       C  0.77524378  0.21956278  0.33775209     1.06160
C2102       C  0.92187063  0.29690744  0.36330727     1.09140
C2103       C  0.77379188  0.12870078  0.43017663     1.06920
H2104       H  0.84101897  0.22805475  0.32607231     0.32480
O2105       O  0.84252987  0.20534085  0.33303575    -1.29430
H2106       H  0.85551804  0.15544112  0.41598653     0.32150
O2107       O  0.85538332  0.15530758  0.39627509    -1.31110
O2108       O  0.78023960  0.09279187  0.27933060    -0.86880
O2109       O  0.93941190  0.11894884  0.37905256    -0.88380
O2110       O  0.86670523  0.22869255  0.27985739    -0.86960
O2111       O  0.73431078  0.07072140  0.37952410    -0.87010
O2112       O  0.84701351  0.08404468  0.41818514    -0.86720
O2113       O  0.97801894  0.24218426  0.31987427    -0.86530
O2114       O  0.91519036  0.14428443  0.27867616    -0.86900
O2115       O  0.81995327  0.03259924  0.32027091    -0.86360
O2116       O  0.93553832  0.21184527  0.27694542    -0.87430
O2117       O  0.78643668  0.02450650  0.36070749    -0.86580
O2118       O  0.79927653  0.18097605  0.27762912    -0.86980
O2119       O  0.98622474  0.21703097  0.36037705    -0.86700
O2120       O  0.91372890  0.13350508  0.42108313    -0.86350
O2121       O  0.72617770  0.09879447  0.34037197    -0.86760
O2122       O  0.82767816  0.07269623  0.27824327    -0.87060
O2123       O  0.91157484  0.08320072  0.33973966    -0.88400
Zr2124     Zr  0.79119486  0.14157304  0.31737771     2.83100
Zr2125     Zr  0.91956796  0.17081307  0.38052733     2.83500
Zr2126     Zr  0.90517249  0.21884058  0.31744504     2.84090
Zr2127     Zr  0.80633791  0.09111515  0.38089599     2.83360
Zr2128     Zr  0.86835987  0.10540845  0.31727328     2.84220
O2129       O  0.86952092  0.10685378  0.36491064    -1.08970
O2130       O  0.85484133  0.15537870  0.30202931    -1.08470
C2131       C  0.79657650  0.07287408  0.26870631     1.06190
C2132       C  0.93038489  0.08892724  0.36288461     1.08810
C2133       C  0.83088951  0.21225555  0.26862543     1.06360
C2134       C  0.71312845  0.07967181  0.36340930     1.06720
C2135       C  0.88251954  0.10164689  0.42992541     1.06310
C2136       C  0.99938898  0.23470303  0.33688315     1.05860
C2137       C  0.93451215  0.18021703  0.26743089     1.06280
C2138       C  0.79107472  0.01134376  0.33724490     1.05800
H2139       H  0.94199928  0.16906158  0.32550505     0.32480
O2140       O  0.91800784  0.16777096  0.33271888    -1.30070
H2141       H  0.78200271  0.06835731  0.32609781     0.32500
O2142       O  0.80470029  0.09259242  0.33308311    -1.31450
O2143       O  0.72467931  0.44121352  0.71250676    -0.86890
O2144       O  0.74840702  0.30859245  0.61214485    -0.87060
O2145       O  0.81071037  0.40780357  0.65345839    -0.88720
O2146       O  0.69831198  0.39132327  0.61202319    -0.87480
O2147       O  0.63075642  0.34383285  0.61045591    -0.87070
O2148       O  0.81884488  0.38305117  0.69416338    -0.88440
O2149       O  0.76845346  0.37611803  0.61042258    -0.86920
O2150       O  0.76005311  0.44940424  0.67296281    -0.86510
Zr2151     Zr  0.73778112  0.38396515  0.65047472     2.84310
O2152       O  0.68757378  0.32033310  0.63557747    -1.08480
O2153       O  0.73641663  0.38368711  0.69807855    -1.09210
C2154       C  0.75457372  0.46236325  0.69622059     1.06220
C2155       C  0.76763081  0.34454165  0.60095813     1.06160
C2156       C  0.83211669  0.40073765  0.67071303     1.09140
C2157       C  0.66233653  0.37440328  0.60082022     1.06920
H2158       H  0.77497720  0.33461344  0.65892160     0.32480
O2159       O  0.75077981  0.33304840  0.66598851    -1.29430
H2160       H  0.67403831  0.39357666  0.65898144     0.32150
O2161       O  0.67540967  0.37090503  0.66619439    -1.31110
O2162       O  0.65205956  0.19746383  0.65394091    -0.86880
O2163       O  0.62489490  0.32909789  0.75154414    -0.88380
O2164       O  0.77199694  0.28440289  0.71277376    -0.86960
O2165       O  0.61438047  0.25895679  0.61326047    -0.87010
O2166       O  0.60075697  0.35615819  0.65353070    -0.86720
O2167       O  0.75966340  0.38401343  0.75100083    -0.86530
O2168       O  0.68036573  0.24947423  0.75143162    -0.86900
O2169       O  0.56744201  0.23643209  0.71280074    -0.86360
O2170       O  0.74700027  0.29914907  0.75426480    -0.87430
O2171       O  0.55899114  0.26348913  0.67327028    -0.86580
O2172       O  0.74383454  0.24803083  0.67372397    -0.86980
O2173       O  0.71014831  0.40096418  0.75446312    -0.86700
O2174       O  0.62619884  0.38963032  0.69393687    -0.86350
O2175       O  0.66193355  0.23919602  0.61091228    -0.86760
O2176       O  0.61899128  0.18961966  0.69451118    -0.87060
O2177       O  0.60801636  0.26253872  0.75470012    -0.88400
Zr2178     Zr  0.70119778  0.27037289  0.65067227     2.83100
Zr2179     Zr  0.67252349  0.36938160  0.71402879     2.83500
Zr2180     Zr  0.75218887  0.33627342  0.71379445     2.84090
Zr2181     Zr  0.62421524  0.30691391  0.65102772     2.83360
Zr2182     Zr  0.63935200  0.25642289  0.71423424     2.84220
O2183       O  0.62475484  0.30599958  0.69861381    -1.08970
O2184       O  0.70244258  0.27222986  0.69825293    -1.08470
C2185       C  0.62354998  0.17612976  0.67119319     1.06190
C2186       C  0.60715351  0.29366355  0.76339494     1.08810
C2187       C  0.76260310  0.25400686  0.69690408     1.06360
C2188       C  0.63066574  0.23955315  0.60195968     1.06720
C2189       C  0.60843397  0.38506062  0.67047054     1.06310
C2190       C  0.74227640  0.40186670  0.76295535     1.05860
C2191       C  0.71594414  0.26716306  0.76310129     1.06280
C2192       C  0.54620040  0.24507552  0.69652360     1.05800
H2193       H  0.68826326  0.32079624  0.74921343     0.32480
O2194       O  0.68811911  0.32074425  0.72950329    -1.30070
H2195       H  0.61473580  0.23334843  0.65953402     0.32500
O2196       O  0.63749157  0.25760620  0.66645162    -1.31450
O2197       O  0.69782080  0.25843182  0.11422893    -0.86890
O2198       O  0.56665413  0.28624190  0.21209276    -0.87060
O2199       O  0.60763957  0.20196502  0.15228657    -0.88720
O2200       O  0.61845992  0.31380247  0.11388778    -0.87480
O2201       O  0.66808587  0.38052468  0.11129045    -0.87070
O2202       O  0.63562892  0.19323549  0.19130293    -0.88440
O2203       O  0.55856427  0.25274334  0.17167487    -0.86920
O2204       O  0.63117727  0.24126382  0.11115535    -0.86510
Zr2205     Zr  0.62534223  0.27335907  0.15144084     2.84310
O2206       O  0.64140466  0.33659239  0.16739240    -1.08480
O2207       O  0.67512405  0.25957618  0.16735043    -1.09210
C2208       C  0.66228210  0.24024443  0.10251578     1.06220
C2209       C  0.54528612  0.25740101  0.19508827     1.06160
C2210       C  0.61775192  0.18107163  0.16781186     1.09140
C2211       C  0.63633269  0.34936476  0.10224091     1.06920
H2212       H  0.60235002  0.24851544  0.20624602     0.32480
O2213       O  0.62652068  0.27130546  0.19926272    -1.29430
H2214       H  0.68989132  0.32256007  0.11639136     0.32150
O2215       O  0.68970574  0.32239377  0.13610314    -1.31110
O2216       O  0.67859211  0.38200325  0.25337249    -0.86880
O2217       O  0.81012439  0.35781936  0.15307706    -0.88380
O2218       O  0.62728079  0.24793877  0.25268342    -0.86960
O2219       O  0.65362625  0.40633123  0.15319071    -0.87010
O2220       O  0.75389589  0.39555564  0.11465372    -0.86720
O2221       O  0.72470676  0.23477514  0.21215332    -0.86530
O2222       O  0.76247660  0.33350728  0.25331248    -0.86900
O2223       O  0.77817916  0.44465522  0.21240426    -0.86360
O2224       O  0.71451297  0.26615497  0.25508468    -0.87430
O2225       O  0.75196136  0.45301679  0.17241498    -0.86580
O2226       O  0.60785456  0.29580123  0.25470890    -0.86980
O2227       O  0.75791826  0.25984569  0.17155621    -0.86700
O2228       O  0.77026843  0.34561591  0.11124187    -0.86350
O2229       O  0.61780955  0.37854963  0.19251191    -0.86760
O2230       O  0.74610353  0.40220752  0.25538555    -0.87060
O2231       O  0.81840758  0.39369655  0.19237974    -0.88400
Zr2232     Zr  0.63964138  0.33514287  0.21499840     2.83100
Zr2233     Zr  0.73825307  0.30665184  0.15143567     2.83500
Zr2234     Zr  0.67585765  0.25823215  0.21490263     2.84090
Zr2235     Zr  0.70551491  0.38659361  0.15189627     2.83360
Zr2236     Zr  0.75327710  0.37171263  0.21507215     2.84220
O2237       O  0.75282901  0.37054862  0.16745518    -1.08970
O2238       O  0.68964010  0.32168431  0.23026768    -1.08470
C2239       C  0.71441889  0.40124347  0.26471746     1.06190
C2240       C  0.83119575  0.38792538  0.16917148     1.08810
C2241       C  0.60794189  0.26447590  0.26385434     1.06360
C2242       C  0.62350308  0.39716185  0.16929358     1.06720
C2243       C  0.77171287  0.37806906  0.10277187     1.06310
C2244       C  0.75354053  0.24251212  0.19518289     1.05860
C2245       C  0.74550398  0.29763252  0.26453118     1.06280
C2246       C  0.77110827  0.46634703  0.19546216     1.05800
H2247       H  0.76253634  0.30806566  0.20645503     0.32480
O2248       O  0.73977218  0.30934687  0.19933541    -1.30070
H2249       H  0.70421329  0.40913173  0.20692926     0.32500
O2250       O  0.70240152  0.38489203  0.19973598    -1.31450
O2251       O  0.00890842  0.04802673  0.58750824    -0.86890
O2252       O  0.64196144  0.02437332  0.48683810    -0.87060
O2253       O  0.59221963  0.99832536  0.58701863    -0.88720
O2254       O  0.60806029  0.11030211  0.54610828    -0.87480
O2255       O  0.58316422  0.11853433  0.50546525    -0.87070
O2256       O  0.54476122  0.43079925  0.58871485    -0.88440
O2257       O  0.64983046  0.06005544  0.52615580    -0.86920
O2258       O  0.57647605  0.06812292  0.58898653    -0.86510
Zr2259     Zr  0.58438224  0.03766279  0.54876852     2.84310
O2260       O  0.58408007  0.03665043  0.50114908    -1.08480
O2261       O  0.52080915  0.48757739  0.56379653    -1.09210
C2262       C  0.54489859  0.06714019  0.59864988     1.06220
C2263       C  0.66302389  0.05433684  0.50306474     1.06160
C2264       C  0.57544500  0.46237472  0.59821445     1.09140
C2265       C  0.60049730  0.13151339  0.52905519     1.06920
H2266       H  0.59405588  0.47399378  0.54022357     0.32480
O2267       O  0.57135493  0.47538361  0.53308283    -1.29430
H2268       H  0.53471157  0.07449894  0.54043027     0.32150
O2269       O  0.53332619  0.05046768  0.53322389    -1.31110
O2270       O  0.52977025  0.42545619  0.44769043    -0.86880
O2271       O  0.89786945  0.45205637  0.54564474    -0.88380
O2272       O  0.55667775  0.40076222  0.54560363    -0.86960
O2273       O  0.58488230  0.06124336  0.44803270    -0.87010
O2274       O  0.98511302  0.07269136  0.48693476    -0.86720
O2275       O  0.96008537  0.41465427  0.58689348    -0.86530
O2276       O  0.93722743  0.36771681  0.48629728    -0.86900
O2277       O  0.94815006  0.47917871  0.44802229    -0.86360
O2278       O  0.96459300  0.35930422  0.52568127    -0.87430
O2279       O  0.99781007  0.04575638  0.44507610    -0.86580
O2280       O  0.59020357  0.42634695  0.50519624    -0.86980
O2281       O  0.94008931  0.46209437  0.58877696    -0.86700
O2282       O  0.94872057  0.04427465  0.52599014    -0.86350
O2283       O  0.60229504  0.01197326  0.44525038    -0.86760
O2284       O  0.96309100  0.40830516  0.44471701    -0.87060
O2285       O  0.89009983  0.41899551  0.50510171    -0.88400
Zr2286     Zr  0.56996712  0.47288790  0.48522765     2.83100
Zr2287     Zr  0.97076357  0.50113837  0.54879178     2.83500
Zr2288     Zr  0.50737322  0.42422299  0.54842763     2.84090
Zr2289     Zr  0.53647989  0.05224836  0.48533426     2.83360
Zr2290     Zr  0.95682101  0.43943632  0.48522548     2.84220
O2291       O  0.97254393  0.50250570  0.50115486    -1.08970
O2292       O  0.50661085  0.42519034  0.50083410    -1.08470
C2293       C  0.49428780  0.40766486  0.43591888     1.06190
C2294       C  0.87661363  0.42348938  0.52843606     1.08810
C2295       C  0.58552738  0.40834743  0.52860013     1.06360
C2296       C  0.60319067  0.04400640  0.43646929     1.06720
C2297       C  0.95477117  0.06328627  0.50288787     1.06310
C2298       C  0.94089639  0.43125496  0.59815683     1.05860
C2299       C  0.94617455  0.34657464  0.50242407     1.06280
C2300       C  0.96561120  0.51469151  0.43634161     1.05800
H2301       H  0.93373310  0.41460625  0.54012489     0.32480
O2302       O  0.95789834  0.43735574  0.53307388    -1.30070
H2303       H  0.52114149  0.48847563  0.44999002     0.32500
O2304       O  0.52110984  0.48825393  0.46970260    -1.31450
C2305       C  0.57624212  0.12406132  0.83205121    -0.09560
C2306       C  0.56617529  0.12980670  0.85832900     0.06640
C2307       C  0.59455106  0.16181390  0.87474405    -0.03320
C2308       C  0.63312789  0.18695437  0.86479680    -0.07770
C2309       C  0.64332708  0.18091592  0.83862095     0.05750
C2310       C  0.61468478  0.14939173  0.82202850    -0.02800
Br2311     Br  0.62648991  0.13866232  0.78592501    -0.02490
H2312       H  0.55450748  0.09916968  0.81965426     0.09670
H2313       H  0.65493643  0.21176135  0.87721450     0.07680
Br2314     Br  0.58206969  0.17328162  0.91049393    -0.02920
C2315       C  0.52404041  0.24875753  0.04333524    -0.09560
C2316       C  0.55326254  0.27669337  0.02526763     0.06640
C2317       C  0.55533174  0.26542908  0.99838258    -0.03320
C2318       C  0.52818611  0.22639534  0.98998029    -0.07770
C2319       C  0.49857239  0.19862777  0.00794362     0.05750
C2320       C  0.49683970  0.20977828  0.03493712    -0.02800
Br2321     Br  0.45704715  0.17408111  0.06066861    -0.02490
H2322       H  0.52227359  0.25749462  0.06410680     0.09670
H2323       H  0.02980847  0.21771546  0.96916600     0.07680
Br2324     Br  0.59495519  0.30149085  0.97273055    -0.02920
C2325       C  0.92678915  0.32942151  0.20742610    -0.09560
C2326       C  0.90006219  0.29684352  0.19096164     0.06640
C2327       C  0.91230526  0.29045504  0.16542988    -0.03320
C2328       C  0.95143890  0.31656747  0.15683402    -0.07770
C2329       C  0.97822465  0.34895106  0.17340265     0.05750
C2330       C  0.96596187  0.35539918  0.19888156    -0.02800
Br2331     Br  0.00093877  0.39952713  0.22218564    -0.02490
H2332       H  0.91719390  0.33418866  0.22720836     0.09670
H2333       H  0.96110075  0.31179667  0.13707725     0.07680
Br2334     Br  0.87765687  0.24590988  0.14229123    -0.02920
C2335       C  0.79937545  0.51821064  0.53151271    -0.09560
C2336       C  0.80890610  0.01395806  0.50473863     0.06640
C2337       C  0.77980255  0.98345130  0.48771191    -0.03320
C2338       C  0.74147869  0.45767021  0.49786104    -0.07770
C2339       C  0.73206453  0.46167685  0.52474262     0.05750
C2340       C  0.76110210  0.49245264  0.54165417    -0.02800
Br2341     Br  0.75028414  0.50162403  0.57846657    -0.02490
H2342       H  0.82157525  0.54207040  0.54436023     0.09670
H2343       H  0.71934394  0.43370391  0.48505156     0.07680
Br2344     Br  0.79095580  0.97422838  0.45095500    -0.02920
C2345       C  0.71974882  0.09883448  0.66809724    -0.09560
C2346       C  0.71416730  0.10839599  0.69456169     0.06640
C2347       C  0.68313527  0.07923661  0.71123012    -0.03320
C2348       C  0.65781639  0.04094858  0.70096240    -0.07770
C2349       C  0.66306362  0.03154314  0.67436704     0.05750
C2350       C  0.69462103  0.06046368  0.65790073    -0.02800
Br2351     Br  0.70559003  0.04919238  0.62170321    -0.02490
H2352       H  0.74417821  0.12103210  0.65559715     0.09670
H2353       H  0.63331096  0.01881366  0.71344351     0.07680
Br2354     Br  0.67291904  0.09008749  0.74773536    -0.02920
C2355       C  0.86562036  0.37594809  0.34585677    -0.09560
C2356       C  0.82478493  0.36496179  0.34500125     0.06640
C2357       C  0.81299843  0.39354039  0.35075259    -0.03320
C2358       C  0.84223558  0.43286118  0.35712265    -0.07770
C2359       C  0.88309443  0.44391824  0.35785164     0.05750
C2360       C  0.89488892  0.41530970  0.35217205    -0.02800
Br2361     Br  0.95053528  0.42905324  0.35201276    -0.02490
H2362       H  0.87483270  0.35427160  0.34051725     0.09670
H2363       H  0.83300543  0.45456591  0.36233594     0.07680
Br2364     Br  0.75740629  0.37994418  0.35039365    -0.02920
C2365       C  0.94368292  0.04424787  0.19710242    -0.09560
C2366       C  0.92694894  0.03394672  0.17102383     0.06640
C2367       C  0.92331097  0.06238429  0.15468364    -0.03320
C2368       C  0.93636816  0.10078550  0.16484695    -0.07770
C2369       C  0.95269862  0.11093631  0.19105040     0.05750
C2370       C  0.95689455  0.08268136  0.20721258    -0.02800
Br2371     Br  0.98135758  0.09514994  0.24284177    -0.02490
H2372       H  0.94718155  0.02258984  0.20934842     0.09670
H2373       H  0.93274482  0.12239720  0.15263688     0.07680
Br2374     Br  0.89941539  0.05010570  0.11888038    -0.02920
C2375       C  0.64351618  0.16532566  0.35607140    -0.09560
C2376       C  0.61377134  0.12445638  0.35703797     0.06640
C2377       C  0.57329267  0.11236105  0.35118583    -0.03320
C2378       C  0.56308867  0.14138928  0.34440243    -0.07770
C2379       C  0.59291661  0.18222904  0.34335672     0.05750
C2380       C  0.63331967  0.19429954  0.34932518    -0.02800
Br2381     Br  0.67522415  0.24997035  0.34878633    -0.02490
H2382       H  0.67449721  0.17479052  0.36143004     0.09670
H2383       H  0.53216038  0.13200886  0.33894848     0.07680
Br2384     Br  0.53148130  0.05665862  0.35149385    -0.02920
C2385       C  0.73575515  0.48099288  0.01266805    -0.09560
C2386       C  0.76514241  0.02201044  0.01332928     0.06640
C2387       C  0.80523819  0.03406107  0.02031441    -0.03320
C2388       C  0.81550139  0.00486269  0.02645127    -0.07770
C2389       C  0.78613732  0.46383334  0.02558085     0.05750
C2390       C  0.74603762  0.45181184  0.01864084    -0.02800
Br2391     Br  0.70484856  0.39599015  0.01628916    -0.02490
H2392       H  0.70515779  0.47164352  0.00633088     0.09670
H2393       H  0.84614845  0.01415237  0.03261863     0.07680
Br2394     Br  0.84653853  0.08987942  0.02182109    -0.02920
C2395       C  0.79789089  0.22375704  0.51874128    -0.09560
C2396       C  0.75966754  0.19916631  0.50745009     0.06640
C2397       C  0.73344299  0.21431788  0.50276090    -0.03320
C2398       C  0.74537709  0.25371111  0.51016820    -0.07770
C2399       C  0.78343914  0.27818063  0.52167350     0.05750
C2400       C  0.80984263  0.26318708  0.52612168    -0.02800
Br2401     Br  0.86117478  0.29451456  0.54376309    -0.02490
H2402       H  0.81836811  0.21224864  0.52168422     0.09670
H2403       H  0.72483580  0.26516472  0.50732576     0.07680
Br2404     Br  0.68221343  0.18320862  0.48496181    -0.02920
C2405       C  0.96345173  0.36295145  0.68942241    -0.09560
C2406       C  0.92554357  0.34873150  0.67748140     0.06640
C2407       C  0.89982858  0.30719756  0.67295351    -0.03320
C2408       C  0.91234163  0.28023953  0.68061385    -0.07770
C2409       C  0.95040770  0.29449733  0.69233320     0.05750
C2410       C  0.97591224  0.33598942  0.69715840    -0.02800
Br2411     Br  0.52684591  0.35688144  0.71550143    -0.02490
H2412       H  0.98345790  0.39505015  0.69237291     0.09670
H2413       H  0.89238456  0.24814858  0.67759144     0.07680
Br2414     Br  0.84859568  0.28628537  0.65501142    -0.02920
C2415       C  0.59128397  0.39340533  0.82139006    -0.09560
C2416       C  0.59376778  0.36607557  0.83939461     0.06640
C2417       C  0.60773667  0.37769897  0.86612910    -0.03320
C2418       C  0.61922166  0.41658135  0.87444221    -0.07770
C2419       C  0.61633277  0.44381094  0.85654972     0.05750
C2420       C  0.60268272  0.43228881  0.82972620    -0.02800
Br2421     Br  0.59743674  0.46748718  0.80417758    -0.02490
H2422       H  0.58032711  0.38431880  0.80072331     0.09670
H2423       H  0.63020081  0.42562018  0.89510911     0.07680
Br2424     Br  0.61295562  0.34244619  0.89164701    -0.02920
C2425       C  0.71166823  0.11863046  0.17520305    -0.09560
C2426       C  0.67692582  0.08993915  0.16107408     0.06640
C2427       C  0.67715417  0.05484521  0.15149516    -0.03320
C2428       C  0.70175358  0.04282446  0.16422135    -0.07770
C2429       C  0.73283286  0.06939280  0.18134084     0.05750
C2430       C  0.74058715  0.10913064  0.18382605    -0.02800
Br2431     Br  0.79187743  0.15136488  0.19632035    -0.02490
H2432       H  0.71773465  0.14898933  0.17873971     0.09670
H2433       H  0.69776658  0.01342628  0.15947730     0.07680
Br2434     Br  0.65924326  0.03054651  0.11609060    -0.02920
C2435       C  0.57690893  0.41041683  0.33341827    -0.09560
C2436       C  0.56738683  0.39565768  0.36003436     0.06640
C2437       C  0.59661049  0.39393465  0.37671373    -0.03320
C2438       C  0.63477879  0.40660918  0.36641861    -0.07770
C2439       C  0.64417479  0.42092185  0.33974621     0.05750
C2440       C  0.61529089  0.42346244  0.32317405    -0.02800
Br2441     Br  0.62683858  0.44561820  0.28687176    -0.02490
H2442       H  0.55470969  0.41251919  0.32084721     0.09670
H2443       H  0.65687222  0.40429163  0.37898128     0.07680
Br2444     Br  0.58612811  0.37338703  0.41330868    -0.02920
C2445       C  0.79829899  0.22870424  0.03188210    -0.09560
C2446       C  0.81184673  0.25248422  0.00841458     0.06640
C2447       C  0.78643638  0.26295212  0.99409523    -0.03320
C2448       C  0.74740251  0.24899815  0.00330354    -0.07770
C2449       C  0.73376174  0.22493492  0.02661461     0.05750
C2450       C  0.75923933  0.21474081  0.04110110    -0.02800
Br2451     Br  0.74172689  0.18125936  0.07315942    -0.02490
H2452       H  0.81769329  0.22007651  0.04249410     0.09670
H2453       H  0.72792770  0.25746430  0.99262732     0.07680
Br2454     Br  0.80370938  0.29623657  0.96201464    -0.02920
C2455       C  0.97907305  0.21901699  0.52784185    -0.09560
C2456       C  0.99297639  0.24889965  0.50777296     0.06640
C2457       C  0.53164206  0.26425012  0.49638039    -0.03320
C2458       C  0.55620038  0.24954770  0.50520718    -0.07770
C2459       C  0.54247877  0.21989653  0.52535904     0.05750
C2460       C  0.50383301  0.20449989  0.53687938    -0.02800
Br2461     Br  0.98405981  0.16411086  0.56500987    -0.02490
H2462       H  0.94891571  0.20671247  0.53611731     0.09670
H2463       H  0.58641598  0.26202797  0.49697655     0.07680
Br2464     Br  0.55215533  0.30537205  0.46893183    -0.02920
C2465       C  0.88959862  0.40677854  0.82908160    -0.09560
C2466       C  0.88724374  0.39591565  0.85650610     0.06640
C2467       C  0.85786549  0.39642290  0.87374919    -0.03320
C2468       C  0.83194712  0.40850483  0.86336655    -0.07770
C2469       C  0.83441293  0.41957763  0.83602916     0.05750
C2470       C  0.86351321  0.41879999  0.81866826    -0.02800
Br2471     Br  0.87042307  0.43533854  0.78100936    -0.02490
H2472       H  0.91237029  0.40678342  0.81594630     0.09670
H2473       H  0.80913572  0.40840711  0.87651891     0.07680
Br2474     Br  0.85016492  0.37962047  0.91134111    -0.02920
C2475       C  0.96674366  0.10895238  0.67706372    -0.09560
C2476       C  0.97876427  0.07998920  0.67929444     0.06640
C2477       C  0.95127146  0.04056763  0.68788164    -0.03320
C2478       C  0.91186778  0.03044910  0.69398898    -0.07770
C2479       C  0.89975417  0.05932372  0.69155482     0.05750
C2480       C  0.92732739  0.09883215  0.68312630    -0.02800
Br2481     Br  0.91204223  0.13927679  0.67893715    -0.02490
H2482       H  0.98766022  0.13899572  0.66957195     0.09670
H2483       H  0.89089406  0.00033714  0.70134084     0.07680
Br2484     Br  0.96651642  0.00006016  0.69166761    -0.02920
C2485       C  0.78851126  0.00216266  0.70610876     0.02730
C2486       C  0.82519706  0.51835512  0.69174403    -0.13420
C2487       C  0.86069627  0.54941224  0.70275921     0.00230
C2488       C  0.86051453  0.56641908  0.72758567    -0.11950
C2489       C  0.82521101  0.55217741  0.74265651     0.02720
C2490       C  0.78858735  0.51975002  0.73186893    -0.11370
H2491       H  0.82734136  0.00491046  0.67282103     0.08310
H2492       H  0.88894037  0.59035731  0.73557068     0.05840
H2493       H  0.76116035  0.50735356  0.74382541     0.05690
C2494       C  0.58912382  0.63608958  0.66204992     0.02730
C2495       C  0.55337488  0.61969045  0.67753930    -0.13420
C2496       C  0.51698879  0.58934251  0.66695618     0.00230
C2497       C  0.51536358  0.57300270  0.64148632    -0.11950
C2498       C  0.54972086  0.58726266  0.62546336     0.02720
C2499       C  0.58714047  0.61914094  0.63574492    -0.11370
H2500       H  0.55256798  0.63270781  0.69699694     0.08310
H2501       H  0.98637861  0.54963203  0.63382398     0.05840
H2502       H  0.61378256  0.63173155  0.62296150     0.05690
C2503       C  0.77632237  0.97396723  0.82500443     0.02730
C2504       C  0.80072464  0.96052999  0.83731633    -0.13420
C2505       C  0.80490745  0.92969024  0.82567531     0.00230
C2506       C  0.78227506  0.90910463  0.80324661    -0.11950
C2507       C  0.75982555  0.92259233  0.78915631     0.02720
C2508       C  0.75613981  0.95506895  0.80018324    -0.11370
H2509       H  0.81912249  0.97586605  0.85497650     0.08310
H2510       H  0.78422853  0.88340016  0.79590873     0.05840
H2511       H  0.73921113  0.96629329  0.78919264     0.05690
C2512       C  0.94129883  0.83844145  0.87113733     0.02730
C2513       C  0.92018232  0.85406770  0.85676638    -0.13420
C2514       C  0.91667325  0.88596988  0.86734697     0.00230
C2515       C  0.93753378  0.90583447  0.89055232    -0.11950
C2516       C  0.95569749  0.88979408  0.90670362     0.02720
C2517       C  0.95857920  0.85625889  0.89683770    -0.11370
H2518       H  0.90318064  0.83932614  0.83850691     0.08310
H2519       H  0.93625538  0.93217443  0.89729286     0.05840
H2520       H  0.97234344  0.84320785  0.90947451     0.05690
C2521       C  0.94038756  0.80698836  0.49250473     0.02730
C2522       C  0.96036476  0.79046151  0.50712238    -0.13420
C2523       C  0.96519167  0.75988574  0.49591353     0.00230
C2524       C  0.94841101  0.74311589  0.47100554    -0.11950
C2525       C  0.92774411  0.75763652  0.45582071     0.02720
C2526       C  0.92338514  0.78986172  0.46658566    -0.11370
H2527       H  0.97540885  0.80340136  0.52630978     0.08310
H2528       H  0.95263706  0.71895263  0.46321675     0.05840
H2529       H  0.90849931  0.80235000  0.45456649     0.05690
C2530       C  0.60380654  0.67005346  0.53894763     0.02730
C2531       C  0.62079435  0.68801524  0.56465698    -0.13420
C2532       C  0.61310083  0.71783353  0.57603753     0.00230
C2533       C  0.58808329  0.72821174  0.56205334    -0.11950
C2534       C  0.57124328  0.71047766  0.53738573     0.02720
C2535       C  0.58015743  0.68318102  0.52520693    -0.11370
H2536       H  0.63840526  0.67795712  0.57604460     0.08310
H2537       H  0.58111413  0.75030767  0.57031445     0.05840
H2538       H  0.56539389  0.66973399  0.50603711     0.05690
C2539       C  0.92321476  0.80423146  0.99418069     0.02730
C2540       C  0.88654712  0.79016750  0.00834262    -0.13420
C2541       C  0.85024686  0.76140367  0.99678177     0.00230
C2542       C  0.84941001  0.74306440  0.97238908    -0.11950
C2543       C  0.88446346  0.75521607  0.95757219     0.02720
C2544       C  0.92196238  0.78629191  0.96838657    -0.11370
H2545       H  0.88522140  0.80402729  0.02729632     0.08310
H2546       H  0.82045584  0.71979755  0.96460480     0.05840
H2547       H  0.94931552  0.79733935  0.95647673     0.05690
C2548       C  0.62224662  0.66876690  0.03986546     0.02730
C2549       C  0.65934127  0.68416737  0.02610206    -0.13420
C2550       C  0.69466229  0.71460382  0.03762217     0.00230
C2551       C  0.69399172  0.73293505  0.06162945    -0.11950
C2552       C  0.65846802  0.71921951  0.07625874     0.02720
C2553       C  0.62190608  0.68677116  0.06537233    -0.11370
H2554       H  0.66187744  0.67036838  0.00746575     0.08310
H2555       H  0.72229828  0.75741356  0.06936420     0.05840
H2556       H  0.59421485  0.67480478  0.07699787     0.05690
C2557       C  0.95559293  0.83658220  0.37335991     0.02730
C2558       C  0.99286576  0.85253892  0.35970064    -0.13420
C2559       C  0.52773846  0.88439518  0.37083301     0.00230
C2560       C  0.52594349  0.90346590  0.39416871    -0.11950
C2561       C  0.99071276  0.88778934  0.40932732     0.02720
C2562       C  0.95474926  0.85437502  0.39877766    -0.11370
H2563       H  0.99587898  0.83836250  0.34141503     0.08310
H2564       H  0.55346414  0.92953001  0.40142696     0.05840
H2565       H  0.92716879  0.84159108  0.41057980     0.05690
C2566       C  0.71862297  0.92214964  0.29103768     0.02730
C2567       C  0.68325887  0.90978751  0.30549401    -0.13420
C2568       C  0.68301195  0.92982996  0.32876217     0.00230
C2569       C  0.71893165  0.95917238  0.34048819    -0.11950
C2570       C  0.75611928  0.97234510  0.32730540     0.02720
C2571       C  0.75573383  0.95373919  0.30195016    -0.11370
H2572       H  0.65475873  0.88536191  0.29798820     0.08310
H2573       H  0.71701317  0.97401641  0.35878045     0.05840
H2574       H  0.78343386  0.96456042  0.29048444     0.05690
C2575       C  0.61416290  0.64292726  0.15666193     0.02730
C2576       C  0.64150844  0.63124377  0.16666570    -0.13420
C2577       C  0.64309993  0.59814332  0.15548901     0.00230
C2578       C  0.61169781  0.57294288  0.13839633    -0.11950
C2579       C  0.59118121  0.58774935  0.12350462     0.02720
C2580       C  0.59097335  0.62258246  0.13317503    -0.11370
H2581       H  0.66213732  0.64877812  0.18275369     0.08310
H2582       H  0.60448007  0.54241303  0.13484290     0.05840
H2583       H  0.57393888  0.63392858  0.12245385     0.05690
C2584       C  0.77835482  0.00685724  0.20473944     0.02730
C2585       C  0.76495475  0.52699130  0.18744077    -0.13420
C2586       C  0.75483412  0.55471176  0.19788793     0.00230
C2587       C  0.76128080  0.56527736  0.22537670    -0.11950
C2588       C  0.78098659  0.55152290  0.24222022     0.02720
C2589       C  0.78854821  0.52093659  0.23214822    -0.11370
H2590       H  0.75899095  0.01860842  0.16612284     0.08310
H2591       H  0.75206582  0.58574675  0.23346809     0.05840
H2592       H  0.80070817  0.50733054  0.24573277     0.05690
C2593       C  0.53648713  0.75423875  0.82622083     0.02730
C2594       C  0.55435391  0.75369920  0.80075929    -0.13420
C2595       C  0.58703641  0.79001047  0.78995072     0.00230
C2596       C  0.60186425  0.82535843  0.80489685    -0.11950
C2597       C  0.58353345  0.82654335  0.82884503     0.02720
C2598       C  0.55191447  0.79140600  0.83986710    -0.11370
H2599       H  0.54199353  0.72607621  0.78903520     0.08310
H2600       H  0.62707557  0.85325698  0.79727385     0.05840
H2601       H  0.53734212  0.79412000  0.85804265     0.05690
C2602       C  0.67145783  0.55536814  0.87097314     0.02730
C2603       C  0.65638817  0.51872062  0.85667502    -0.13420
C2604       C  0.62541191  0.98285753  0.86747426     0.00230
C2605       C  0.60706348  0.98285062  0.89176100    -0.11950
C2606       C  0.62160994  0.51756364  0.90730831     0.02720
C2607       C  0.65380688  0.55452273  0.89679735    -0.11370
H2608       H  0.67106639  0.51694689  0.83825874     0.08310
H2609       H  0.58232091  0.95451059  0.89923351     0.05840
H2610       H  0.66609904  0.58164555  0.90906689     0.05690
C2611       C  0.87171707  0.90563587  0.66139617     0.02730
C2612       C  0.88702633  0.88480841  0.67637269    -0.13420
C2613       C  0.91630882  0.87769618  0.66526762     0.00230
C2614       C  0.93327775  0.89330734  0.64011034    -0.11950
C2615       C  0.92028142  0.91509516  0.62469932     0.02720
C2616       C  0.88904795  0.92131880  0.63529191    -0.11370
H2617       H  0.87381216  0.87060782  0.69572841     0.08310
H2618       H  0.95626102  0.88728639  0.63229413     0.05840
H2619       H  0.87730597  0.93659198  0.62292867     0.05690
C2620       C  0.50661560  0.73940182  0.70641598     0.02730
C2621       C  0.49075652  0.76034518  0.69219100    -0.13420
C2622       C  0.96043023  0.76552080  0.70356930     0.00230
C2623       C  0.94319646  0.74799145  0.72824181    -0.11950
C2624       C  0.95713519  0.72644690  0.74308407     0.02720
C2625       C  0.98914414  0.72186483  0.73215521    -0.11370
H2626       H  0.50410097  0.77591606  0.67321711     0.08310
H2627       H  0.91935856  0.75256171  0.73625284     0.05840
H2628       H  0.50130233  0.70648113  0.74397565     0.05690
C2629       C  0.70306445  0.58806366  0.49327834     0.02730
C2630       C  0.72069175  0.58816131  0.46750777    -0.13420
C2631       C  0.75321305  0.62479057  0.45672950     0.00230
C2632       C  0.76742666  0.66007356  0.47179076    -0.11950
C2633       C  0.75005174  0.66021160  0.49643170     0.02720
C2634       C  0.71938654  0.62469043  0.50767516    -0.11370
H2635       H  0.70826927  0.56075584  0.45555142     0.08310
H2636       H  0.79146367  0.68852392  0.46389610     0.05840
H2637       H  0.70600189  0.62687543  0.52661860     0.05690
C2638       C  0.83688111  0.88878514  0.53771187     0.02730
C2639       C  0.81958880  0.88690283  0.56387271    -0.13420
C2640       C  0.78825638  0.84931409  0.57438874     0.00230
C2641       C  0.77518422  0.81467126  0.55887510    -0.11950
C2642       C  0.79217156  0.81626442  0.53371377     0.02720
C2643       C  0.82142231  0.85276925  0.52263668    -0.11370
H2644       H  0.83144906  0.91380490  0.57633942     0.08310
H2645       H  0.75223387  0.78555981  0.56665779     0.05840
H2646       H  0.83462813  0.85190301  0.50326949     0.05690
C2647       C  0.70717171  0.57420143  0.99544552     0.02730
C2648       C  0.72439477  0.55588082  0.01121883    -0.13420
C2649       C  0.75503937  0.55024537  0.00070407     0.00230
C2650       C  0.77067519  0.56428324  0.97494940    -0.11950
C2651       C  0.75565820  0.58343655  0.95867117     0.02720
C2652       C  0.72362032  0.58865146  0.96892653    -0.11370
H2653       H  0.71180941  0.54251892  0.03088469     0.08310
H2654       H  0.79414611  0.55889705  0.96726743     0.05840
H2655       H  0.71051287  0.60202019  0.95596505     0.05690
C2656       C  0.84156569  0.90753549  0.03939401     0.02730
C2657       C  0.82398306  0.88992965  0.06514157    -0.13420
C2658       C  0.79265716  0.89537639  0.07642445     0.00230
C2659       C  0.77963565  0.91795968  0.06191605    -0.11950
C2660       C  0.79632279  0.93491435  0.03694548     0.02720
C2661       C  0.82638393  0.92932866  0.02545956    -0.11370
H2662       H  0.83553114  0.87374507  0.07668399     0.08310
H2663       H  0.75653104  0.92336909  0.07028200     0.05840
H2664       H  0.83976610  0.94476674  0.00645445     0.05690
C2665       C  0.67303966  0.57306469  0.37318096     0.02730
C2666       C  0.65565526  0.59188635  0.35817330    -0.13420
C2667       C  0.62467272  0.59647811  0.36912299     0.00230
C2668       C  0.60893899  0.58093349  0.39456038    -0.11950
C2669       C  0.62373369  0.56067873  0.40995575     0.02720
C2670       C  0.65614939  0.55650654  0.39926773    -0.11370
H2671       H  0.66817828  0.60622545  0.33872615     0.08310
H2672       H  0.58526625  0.58570614  0.40262461     0.05840
H2673       H  0.66904364  0.54221935  0.41150902     0.05690
C2674       C  0.53858208  0.73891404  0.32715479     0.02730
C2675       C  0.55582374  0.75459766  0.30098970    -0.13420
C2676       C  0.58648622  0.74768584  0.29010101     0.00230
C2677       C  0.59868438  0.72499390  0.30517238    -0.11950
C2678       C  0.58272866  0.71035298  0.33072505     0.02720
C2679       C  0.55369778  0.71776125  0.34196006    -0.11370
H2680       H  0.54453761  0.77050726  0.28886545     0.08310
H2681       H  0.62092992  0.71817160  0.29700299     0.05840
H2682       H  0.54088221  0.70402978  0.36149971     0.05690
C2683       C  0.95533358  0.68470587  0.24095446     0.02730
C2684       C  0.94230338  0.64966076  0.22597735    -0.13420
C2685       C  0.96183954  0.64970960  0.20232004     0.00230
C2686       C  0.99168500  0.68570586  0.19096085    -0.11950
C2687       C  0.50580812  0.72260360  0.20478745     0.02720
C2688       C  0.98740607  0.72184225  0.23034870    -0.11370
H2689       H  0.91779821  0.62112543  0.23338308     0.08310
H2690       H  0.50621147  0.68394437  0.17245261     0.05840
H2691       H  0.49884746  0.74922041  0.24226288     0.05690
C2692       C  0.87049774  0.92184881  0.15892224     0.02730
C2693       C  0.88550399  0.95936504  0.17205281    -0.13420
C2694       C  0.91615017  0.99443518  0.16029061     0.00230
C2695       C  0.93507920  0.99279188  0.13684004    -0.11950
C2696       C  0.92081177  0.95697145  0.12247882     0.02720
C2697       C  0.88839600  0.92081014  0.13360199    -0.11370
H2698       H  0.87135440  0.96230369  0.19038445     0.08310
H2699       H  0.96022466  0.52065331  0.12911567     0.05840
H2700       H  0.87632766  0.89287839  0.12225544     0.05690
C2701       C  0.77017120  0.75411069  0.32828358     0.02730
C2702       C  0.79000358  0.79013563  0.34347622    -0.13420
C2703       C  0.79658385  0.82650511  0.33247202     0.00230
C2704       C  0.78224351  0.82778697  0.30677828    -0.11950
C2705       C  0.76123820  0.79307956  0.29122487     0.02720
C2706       C  0.75507898  0.75571390  0.30193629    -0.11370
H2707       H  0.80351913  0.79103700  0.36310360     0.08310
H2708       H  0.78843072  0.85674050  0.29870281     0.05840
H2709       H  0.74033537  0.72876149  0.28949491     0.05690
C2710       C  0.93634703  0.55514811  0.37284942     0.02730
C2711       C  0.91644387  0.51858797  0.35830102    -0.13420
C2712       C  0.91152671  0.98300514  0.36953607     0.00230
C2713       C  0.92767253  0.98312995  0.39481441    -0.11950
C2714       C  0.94879678  0.51846545  0.40981993     0.02720
C2715       C  0.95335760  0.55507662  0.39882994    -0.11370
H2716       H  0.90167748  0.51661748  0.33900900     0.08310
H2717       H  0.92265790  0.95467441  0.40308001     0.05840
H2718       H  0.96832672  0.58251670  0.41076343     0.05690
C2719       C  0.76827147  0.72024684  0.70717351     0.02730
C2720       C  0.78749950  0.72128773  0.73242453    -0.13420
C2721       C  0.78457526  0.68523548  0.74315042     0.00230
C2722       C  0.76394824  0.64976466  0.72837317    -0.11950
C2723       C  0.74268599  0.64795912  0.70525232     0.02720
C2724       C  0.74610085  0.68281551  0.69388926    -0.11370
H2725       H  0.80299627  0.74906467  0.74396837     0.08310
H2726       H  0.76215771  0.62212744  0.73568444     0.05840
H2727       H  0.72860669  0.67971324  0.67571140     0.05690
C2728       C  0.60409221  0.91991689  0.66073633     0.02730
C2729       C  0.58643900  0.92067522  0.63519952    -0.13420
C2730       C  0.59160255  0.95781265  0.62466109     0.00230
C2731       C  0.61345003  0.99277495  0.63970935    -0.11950
C2732       C  0.63332951  0.99278202  0.66317115     0.02720
C2733       C  0.62718688  0.95680907  0.67450701    -0.11370
H2734       H  0.57041904  0.89331448  0.62326577     0.08310
H2735       H  0.61719472  0.52124526  0.63243281     0.05840
H2736       H  0.64365433  0.95856480  0.69295118     0.05690
C2737       C  0.92100281  0.56899676  0.49264142     0.02730
C2738       C  0.88346704  0.54661715  0.50579939    -0.13420
C2739       C  0.84856289  0.54298299  0.49429715     0.00230
C2740       C  0.85048681  0.56442979  0.47122711    -0.11950
C2741       C  0.88602819  0.58508318  0.45648753     0.02720
C2742       C  0.92208084  0.58814494  0.46733739    -0.11370
H2743       H  0.88033427  0.52902612  0.52393230     0.08310
H2744       H  0.82286222  0.56259012  0.46383586     0.05840
H2745       H  0.94988939  0.60361225  0.45580607     0.05690
C2746       C  0.62022274  0.90356289  0.53825576     0.02730
C2747       C  0.62082883  0.88577464  0.56379786    -0.13420
C2748       C  0.65777367  0.89023115  0.57419527     0.00230
C2749       C  0.69264124  0.91125136  0.55890035    -0.11950
C2750       C  0.69303273  0.93172566  0.53563296     0.02720
C2751       C  0.65720578  0.92637997  0.52447211    -0.11370
H2752       H  0.59353799  0.87025022  0.57586730     0.08310
H2753       H  0.72088768  0.91427022  0.56602728     0.05840
H2754       H  0.65917645  0.94324030  0.50618661     0.05690
C2755       C  0.78865559  0.73928404  0.20538667     0.02730
C2756       C  0.82528024  0.76127348  0.19115405    -0.13420
C2757       C  0.86134125  0.76788907  0.20259557     0.00230
C2758       C  0.86178527  0.75097856  0.22739807    -0.11950
C2759       C  0.82676442  0.72931178  0.24247913     0.02720
C2760       C  0.78963963  0.72352641  0.23162202    -0.11370
H2761       H  0.82672859  0.77633743  0.17209132     0.08310
H2762       H  0.89043625  0.75576863  0.23514556     0.05840
H2763       H  0.76224076  0.70766543  0.24354720     0.05690
C2764       C  0.58954645  0.90262227  0.15918245     0.02730
C2765       C  0.55273303  0.88177101  0.17335718    -0.13420
C2766       C  0.51739766  0.87735533  0.16213928     0.00230
C2767       C  0.51790060  0.89529581  0.13761821    -0.11950
C2768       C  0.55304242  0.91571389  0.12247449     0.02720
C2769       C  0.58958385  0.91990549  0.13330541    -0.11370
H2770       H  0.55038695  0.86582647  0.19217878     0.08310
H2771       H  0.48972324  0.89186075  0.12994758     0.05840
H2772       H  0.61701248  0.93479242  0.12135257     0.05690
C2773       C  0.93888557  0.58663508  0.99395840     0.02730
C2774       C  0.96254098  0.62350106  0.00769566    -0.13420
C2775       C  0.96819288  0.65966197  0.99692711     0.00230
C2776       C  0.94895656  0.65986067  0.97307844    -0.11950
C2777       C  0.92665079  0.62487248  0.95804975     0.02720
C2778       C  0.92107194  0.58760223  0.96858043    -0.11370
H2779       H  0.97966668  0.62501938  0.02572228     0.08310
H2780       H  0.95311523  0.68841481  0.96564589     0.05840
H2781       H  0.90460214  0.56022427  0.95672029     0.05690
C2782       C  0.60496406  0.88838253  0.03932533     0.02730
C2783       C  0.62311753  0.88900986  0.06491744    -0.13420
C2784       C  0.62051559  0.85306000  0.07542631     0.00230
C2785       C  0.60159198  0.81805582  0.05996752    -0.11950
C2786       C  0.58201668  0.81654231  0.03592263     0.02720
C2787       C  0.58439083  0.85139644  0.02524149    -0.11370
H2788       H  0.63737819  0.91637410  0.07696013     0.08310
H2789       H  0.59988338  0.79050961  0.06739485     0.05840
H2790       H  0.56711321  0.84851778  0.00700208     0.05690
C2791       C  0.75509338  0.73491392  0.82571868     0.02730
C2792       C  0.71778767  0.71309685  0.83924103    -0.13420
C2793       C  0.68285019  0.70957983  0.82793576     0.00230
C2794       C  0.68443528  0.73039363  0.80460989    -0.11950
C2795       C  0.71974263  0.75066862  0.78961765     0.02720
C2796       C  0.75588390  0.75369334  0.80029520    -0.11370
H2797       H  0.71481014  0.69585559  0.85753177     0.08310
H2798       H  0.65671075  0.72840222  0.79728075     0.05840
H2799       H  0.78353079  0.76888963  0.78857633     0.05690
C2800       C  0.95449947  0.57014575  0.87170445     0.02730
C2801       C  0.99142569  0.59345235  0.85798783    -0.13420
C2802       C  0.52745487  0.59990572  0.86943322     0.00230
C2803       C  0.52756747  0.58020132  0.89295142    -0.11950
C2804       C  0.99254789  0.55800035  0.90786936     0.02720
C2805       C  0.95532132  0.55252762  0.89724468    -0.11370
H2806       H  0.99314565  0.60988301  0.83953015     0.08310
H2807       H  0.55613100  0.58431007  0.90034933     0.05840
H2808       H  0.92791800  0.53629858  0.90912735     0.05690
O2809       O  0.86455917  0.59078259  0.78090869    -0.86890
O2810       O  0.73243200  0.61852267  0.87862432    -0.87060
O2811       O  0.77157909  0.53377087  0.81952545    -0.88720
O2812       O  0.78391625  0.64614077  0.78125892    -0.87480
O2813       O  0.83341719  0.71280196  0.77826597    -0.87070
O2814       O  0.79873798  0.52520338  0.85901488    -0.88440
O2815       O  0.72452717  0.58512514  0.83819301    -0.86920
O2816       O  0.79793822  0.57372502  0.77795783    -0.86510
Zr2817     Zr  0.79126966  0.60542565  0.81835093     2.84310
O2818       O  0.80691971  0.66856081  0.83419508    -1.08480
O2819       O  0.84085856  0.59124299  0.83430165    -1.09210
C2820       C  0.82904876  0.57276551  0.76918191     1.06220
C2821       C  0.71115263  0.58983154  0.86151923     1.06160
C2822       C  0.78073653  0.51271273  0.83556351     1.09140
C2823       C  0.80142077  0.68165621  0.76954734     1.06920
H2824       H  0.76810842  0.58087977  0.87336833     0.32480
O2825       O  0.79227677  0.60354919  0.86624907    -1.29430
H2826       H  0.85554589  0.65439587  0.78324021     0.32150
O2827       O  0.85547798  0.65431743  0.80295230    -1.31110
O2828       O  0.84399289  0.71484255  0.92002547    -0.86880
O2829       O  0.97590657  0.69028476  0.82009222    -0.88380
O2830       O  0.79451302  0.58155113  0.92059952    -0.86960
O2831       O  0.81909044  0.73832264  0.81987794    -0.87010
O2832       O  0.91890623  0.72710320  0.78132859    -0.86720
O2833       O  0.89080093  0.56688441  0.87907786    -0.86530
O2834       O  0.92698536  0.66523313  0.92035880    -0.86900
O2835       O  0.94264841  0.77694439  0.87891366    -0.86360
O2836       O  0.87949369  0.59771874  0.92219694    -0.87430
O2837       O  0.91709825  0.78512046  0.83856781    -0.86580
O2838       O  0.77449922  0.62902545  0.92197269    -0.86980
O2839       O  0.92403159  0.59207394  0.83851216    -0.86700
O2840       O  0.93570542  0.67742973  0.77820850    -0.86350
O2841       O  0.78301232  0.71042725  0.85908401    -0.86760
O2842       O  0.91148427  0.73485578  0.92196848    -0.87060
O2843       O  0.98406138  0.72594259  0.85947813    -0.88400
Zr2844     Zr  0.80523005  0.66742247  0.88178658     2.83100
Zr2845     Zr  0.90407282  0.63870386  0.81847398     2.83500
Zr2846     Zr  0.84150254  0.59032004  0.88192901     2.84090
Zr2847     Zr  0.87092994  0.71845714  0.81864133     2.83360
Zr2848     Zr  0.91876494  0.70399220  0.88191269     2.84220
O2849       O  0.91842308  0.70265748  0.83430894    -1.08970
O2850       O  0.85516771  0.65389114  0.89700333    -1.08470
C2851       C  0.87989668  0.73414522  0.93126695     1.06190
C2852       C  0.99695190  0.72031283  0.83626164     1.08810
C2853       C  0.77546436  0.59845327  0.93171202     1.06360
C2854       C  0.78887431  0.72915498  0.83589224     1.06720
C2855       C  0.93672715  0.70958481  0.76954721     1.06310
C2856       C  0.91954471  0.57437283  0.86200432     1.05860
C2857       C  0.91025461  0.62935518  0.93163242     1.06280
C2858       C  0.93533710  0.79840313  0.86185467     1.05800
H2859       H  0.92813741  0.64007264  0.87352810     0.32480
O2860       O  0.90544854  0.64146999  0.86637077    -1.30070
H2861       H  0.86934622  0.74112117  0.87352973     0.32500
O2862       O  0.86783660  0.71697744  0.86643347    -1.31450
O2863       O  0.95313736  0.92781917  0.94481624    -0.86890
O2864       O  0.60679852  0.95153204  0.04585911    -0.87060
O2865       O  0.58299144  0.97724654  0.94546308    -0.88720
O2866       O  0.98705671  0.86488330  0.98681598    -0.87480
O2867       O  0.95388265  0.85636194  0.02740605    -0.87070
O2868       O  0.60306216  0.54475981  0.94375855    -0.88440
O2869       O  0.58041327  0.91634648  0.00614750    -0.86920
O2870       O  0.00043014  0.90754145  0.94357801    -0.86510
Zr2871     Zr  0.53659959  0.93785644  0.98412119     2.84310
O2872       O  0.53711733  0.93907693  0.03167685    -1.08480
O2873       O  0.52285035  0.98765017  0.96899703    -1.09210
C2874       C  0.97032007  0.90903442  0.93366862     1.06220
C2875       C  0.59857565  0.92188750  0.02949974     1.06160
C2876       C  0.60188485  0.01313307  0.93414669     1.09140
C2877       C  0.95832249  0.84335900  0.00388268     1.06920
H2878       H  0.60989067  0.00215808  0.99257889     0.32480
O2879       O  0.58565832  0.00050266  0.99965445    -1.29430
H2880       H  0.94961539  0.90018323  0.99194158     0.32150
O2881       O  0.97223129  0.92423196  0.99922706    -1.31110
O2882       O  0.59187282  0.54939990  0.08544875    -0.86880
O2883       O  0.93560978  0.52292683  0.98638300    -0.88380
O2884       O  0.64547888  0.57515172  0.98737757    -0.86960
O2885       O  0.01348093  0.91470382  0.08439320    -0.87010
O2886       O  0.90183257  0.90352943  0.04552760    -0.86720
O2887       O  0.53292461  0.55855511  0.94563799    -0.86530
O2888       O  0.55843051  0.60773889  0.04598353    -0.86900
O2889       O  0.95861330  0.49544423  0.08411149    -0.86360
O2890       O  0.59383418  0.61661838  0.00638303    -0.87430
O2891       O  0.94205393  0.92904447  0.08755556    -0.86580
O2892       O  0.65348169  0.54990319  0.02792624    -0.86980
O2893       O  0.96545028  0.51087698  0.94356363    -0.86700
O2894       O  0.89330793  0.92985715  0.00565510    -0.86350
O2895       O  0.58014367  0.96413323  0.08719487    -0.86760
O2896       O  0.54244165  0.56662355  0.08815675    -0.87060
O2897       O  0.95961466  0.55539647  0.02728336    -0.88400
Zr2898     Zr  0.58650393  0.00311962  0.04747666     2.83100
Zr2899     Zr  0.95898903  0.97346959  0.98369674     2.83500
Zr2900     Zr  0.57250388  0.55132680  0.98412986     2.84090
Zr2901     Zr  0.97356603  0.92288528  0.04708866     2.83360
Zr2902     Zr  0.50653794  0.53580383  0.04707044     2.84220
O2903       O  0.95924266  0.97248167  0.03126877    -1.08970
O2904       O  0.57090998  0.55075888  0.03174090    -1.08470
C2905       C  0.57406682  0.56705285  0.09721158     1.06190
C2906       C  0.94263534  0.55138843  0.00359496     1.08810
C2907       C  0.66694320  0.56810324  0.00461117     1.06360
C2908       C  0.54907135  0.93216106  0.09598127     1.06720
C2909       C  0.88066537  0.91217391  0.02918102     1.06310
C2910       C  0.49705467  0.54172511  0.93426756     1.05860
C2911       C  0.58828872  0.62919389  0.02975765     1.06280
C2912       C  0.94100082  0.96017030  0.09606710     1.05800
H2913       H  0.50834318  0.56029697  0.99220273     0.32480
O2914       O  0.50972396  0.53757600  0.99930227    -1.30070
H2915       H  0.52182374  0.98683612  0.08232982     0.32500
O2916       O  0.52206035  0.98712098  0.06262212    -1.31450
O2917       O  0.92844201  0.71919558  0.41768737    -0.86890
O2918       O  0.76763557  0.69076900  0.32068536    -0.87060
O2919       O  0.89153531  0.77585481  0.37928726    -0.88720
O2920       O  0.79195985  0.66427066  0.41851593    -0.87480
O2921       O  0.77456576  0.59756236  0.42129708    -0.87070
O2922       O  0.92786800  0.78397832  0.34024059    -0.88440
O2923       O  0.79345407  0.72433175  0.36104785    -0.86920
O2924       O  0.87870417  0.73593567  0.42085688    -0.86510
Zr2925     Zr  0.83978285  0.70392525  0.38087032     2.84310
O2926       O  0.79201381  0.64072768  0.36506007    -1.08480
O2927       O  0.90376973  0.71833737  0.36501893    -1.09210
C2928       C  0.91095804  0.73711621  0.42941784     1.06220
C2929       C  0.77524382  0.71956272  0.33775213     1.06160
C2930       C  0.92187061  0.79690739  0.36330724     1.09140
C2931       C  0.77379193  0.62870071  0.43017669     1.06920
H2932       H  0.84101901  0.72805471  0.32607237     0.32480
O2933       O  0.84252993  0.70534084  0.33303582    -1.29430
H2934       H  0.85551814  0.65544111  0.41598657     0.32150
O2935       O  0.85538341  0.65530756  0.39627514    -1.31110
O2936       O  0.78023969  0.59279129  0.27933125    -0.86880
O2937       O  0.93941204  0.61894887  0.37905262    -0.88380
O2938       O  0.86670501  0.72869223  0.27985736    -0.86960
O2939       O  0.73431083  0.57072142  0.37952418    -0.87010
O2940       O  0.84701360  0.58404463  0.41818520    -0.86720
O2941       O  0.97801894  0.74218420  0.31987421    -0.86530
O2942       O  0.91519030  0.64428437  0.27867615    -0.86900
O2943       O  0.81995333  0.53259921  0.32027094    -0.86360
O2944       O  0.93553827  0.71184521  0.27694538    -0.87430
O2945       O  0.78643663  0.52450641  0.36070748    -0.86580
O2946       O  0.79927632  0.68097566  0.27762918    -0.86980
O2947       O  0.98622479  0.71703099  0.36037700    -0.86700
O2948       O  0.91372897  0.63350509  0.42108318    -0.86350
O2949       O  0.72617775  0.59879445  0.34037204    -0.86760
O2950       O  0.82767834  0.57269579  0.27824355    -0.87060
O2951       O  0.91157508  0.58320080  0.33973970    -0.88400
Zr2952     Zr  0.79119494  0.64157299  0.31737789     2.83100
Zr2953     Zr  0.91956806  0.67081307  0.38052736     2.83500
Zr2954     Zr  0.90517249  0.71884052  0.31744503     2.84090
Zr2955     Zr  0.80633797  0.59111508  0.38089609     2.83360
Zr2956     Zr  0.86836001  0.60540843  0.31727338     2.84220
O2957       O  0.86952102  0.60685373  0.36491075    -1.08970
O2958       O  0.85484134  0.65537860  0.30202936    -1.08470
C2959       C  0.79657641  0.57287337  0.26870689     1.06190
C2960       C  0.93038508  0.58892729  0.36288466     1.08810
C2961       C  0.83088926  0.71225515  0.26862543     1.06360
C2962       C  0.71312850  0.57967182  0.36340938     1.06720
C2963       C  0.88251962  0.60164688  0.42992546     1.06310
C2964       C  0.99938899  0.73470298  0.33688307     1.05860
C2965       C  0.93451204  0.68021694  0.26743085     1.06280
C2966       C  0.79107471  0.51134370  0.33724488     1.05800
H2967       H  0.94199935  0.66906155  0.32550506     0.32480
O2968       O  0.91800794  0.66777097  0.33271891    -1.30070
H2969       H  0.78200282  0.56835731  0.32609802     0.32500
O2970       O  0.80470045  0.59259243  0.33308325    -1.31450
O2971       O  0.72467937  0.94121346  0.71250668    -0.86890
O2972       O  0.74840708  0.80859235  0.61214481    -0.87060
O2973       O  0.81071041  0.90780352  0.65345834    -0.88720
O2974       O  0.69831202  0.89132320  0.61202315    -0.87480
O2975       O  0.63075647  0.84383278  0.61045587    -0.87070
O2976       O  0.81884493  0.88305115  0.69416333    -0.88440
O2977       O  0.76845349  0.87611792  0.61042252    -0.86920
O2978       O  0.76005314  0.94940417  0.67296272    -0.86510
Zr2979     Zr  0.73778117  0.88396507  0.65047466     2.84310
O2980       O  0.68757384  0.82033301  0.63557742    -1.08480
O2981       O  0.73641670  0.88368705  0.69807849    -1.09210
C2982       C  0.75457376  0.96236319  0.69622050     1.06220
C2983       C  0.76763086  0.84454155  0.60095808     1.06160
C2984       C  0.83211674  0.90073762  0.67071298     1.09140
C2985       C  0.66233657  0.87440322  0.60082018     1.06920
H2986       H  0.77497727  0.83461338  0.65892155     0.32480
O2987       O  0.75077987  0.83304832  0.66598846    -1.29430
H2988       H  0.67403837  0.89357660  0.65898139     0.32150
O2989       O  0.67540973  0.87090496  0.66619434    -1.31110
O2990       O  0.65205960  0.69746374  0.65394087    -0.86880
O2991       O  0.62489499  0.82909781  0.75154408    -0.88380
O2992       O  0.77199706  0.78440288  0.71277374    -0.86960
O2993       O  0.61438052  0.75895675  0.61326043    -0.87010
O2994       O  0.60075705  0.85615814  0.65353066    -0.86720
O2995       O  0.75966346  0.88401337  0.75100078    -0.86530
O2996       O  0.68036584  0.74947421  0.75143159    -0.86900
O2997       O  0.56744209  0.73643213  0.71280069    -0.86360
O2998       O  0.74700038  0.79914905  0.75426476    -0.87430
O2999       O  0.55899120  0.76348906  0.67327019    -0.86580
O3000       O  0.74383457  0.74803073  0.67372400    -0.86980
O3001       O  0.71014838  0.90096412  0.75446306    -0.86700
O3002       O  0.62619890  0.88963025  0.69393684    -0.86350
O3003       O  0.66193359  0.73919595  0.61091222    -0.86760
O3004       O  0.61899133  0.68961958  0.69451113    -0.87060
O3005       O  0.60801644  0.76253864  0.75470006    -0.88400
Zr3006     Zr  0.70119784  0.77037280  0.65067222     2.83100
Zr3007     Zr  0.67252356  0.86938153  0.71402874     2.83500
Zr3008     Zr  0.75218893  0.83627337  0.71379440     2.84090
Zr3009     Zr  0.62421531  0.80691384  0.65102767     2.83360
Zr3010     Zr  0.63935207  0.75642282  0.71423419     2.84220
O3011       O  0.62475492  0.80599952  0.69861376    -1.08970
O3012       O  0.70244266  0.77222980  0.69825288    -1.08470
C3013       C  0.62355002  0.67612968  0.67119315     1.06190
C3014       C  0.60715360  0.79366347  0.76339488     1.08810
C3015       C  0.76260318  0.75400681  0.69690409     1.06360
C3016       C  0.63066578  0.73955309  0.60195963     1.06720
C3017       C  0.60843404  0.88506056  0.67047051     1.06310
C3018       C  0.74227646  0.90186664  0.76295530     1.05860
C3019       C  0.71594426  0.76716305  0.76310125     1.06280
C3020       C  0.54620047  0.74507552  0.69652353     1.05800
H3021       H  0.68826333  0.82079618  0.74921337     0.32480
O3022       O  0.68811918  0.82074419  0.72950324    -1.30070
H3023       H  0.61473586  0.73334836  0.65953398     0.32500
O3024       O  0.63749163  0.75760613  0.66645157    -1.31450
O3025       O  0.69782062  0.75843190  0.11422899    -0.86890
O3026       O  0.56665421  0.78624226  0.21209289    -0.87060
O3027       O  0.60763851  0.70196501  0.15228693    -0.88720
O3028       O  0.61846000  0.81380259  0.11388774    -0.87480
O3029       O  0.66808598  0.88052480  0.11129050    -0.87070
O3030       O  0.63562777  0.69323554  0.19130334    -0.88440
O3031       O  0.55856427  0.75274391  0.17167490    -0.86920
O3032       O  0.63117711  0.74126394  0.11115545    -0.86510
Zr3033     Zr  0.62534218  0.77335931  0.15144093     2.84310
O3034       O  0.64140463  0.83659268  0.16739248    -1.08480
O3035       O  0.67512385  0.75957606  0.16735045    -1.09210
C3036       C  0.66228191  0.74024453  0.10251585     1.06220
C3037       C  0.54528619  0.75740144  0.19508836     1.06160
C3038       C  0.61775029  0.68107139  0.16781244     1.09140
C3039       C  0.63633287  0.84936488  0.10224087     1.06920
H3040       H  0.60235004  0.74851582  0.20624611     0.32480
O3041       O  0.62652071  0.77130581  0.19926280    -1.29430
H3042       H  0.68989129  0.82256022  0.11639147     0.32150
O3043       O  0.68970571  0.82239392  0.13610324    -1.31110
O3044       O  0.67859220  0.88200343  0.25337262    -0.86880
O3045       O  0.81012427  0.85781954  0.15307708    -0.88380
O3046       O  0.62728092  0.74793918  0.25268357    -0.86960
O3047       O  0.65362660  0.90633177  0.15319091    -0.87010
O3048       O  0.75389588  0.89555574  0.11465378    -0.86720
O3049       O  0.72470650  0.73477508  0.21215338    -0.86530
O3050       O  0.76247657  0.83350728  0.25331253    -0.86900
O3051       O  0.77817934  0.94465543  0.21240426    -0.86360
O3052       O  0.71451289  0.76615498  0.25508472    -0.87430
O3053       O  0.75196150  0.95301701  0.17241500    -0.86580
O3054       O  0.60785466  0.79580161  0.25470903    -0.86980
O3055       O  0.75791817  0.75984578  0.17155634    -0.86700
O3056       O  0.77026829  0.84561592  0.11124191    -0.86350
O3057       O  0.61780996  0.87855029  0.19251216    -0.86760
O3058       O  0.74610360  0.90220759  0.25538568    -0.87060
O3059       O  0.81840760  0.89369669  0.19237981    -0.88400
Zr3060     Zr  0.63964147  0.83514321  0.21499850     2.83100
Zr3061     Zr  0.73825295  0.80665188  0.15143574     2.83500
Zr3062     Zr  0.67585754  0.75823232  0.21490269     2.84090
Zr3063     Zr  0.70551496  0.88659380  0.15189637     2.83360
Zr3064     Zr  0.75327713  0.87171277  0.21507224     2.84220
O3065       O  0.75282895  0.87054866  0.16745528    -1.08970
O3066       O  0.68964010  0.82168451  0.23026776    -1.08470
C3067       C  0.71441897  0.90124354  0.26471760     1.06190
C3068       C  0.83119567  0.88792557  0.16917150     1.08810
C3069       C  0.60794204  0.76447632  0.26385450     1.06360
C3070       C  0.62350354  0.89716256  0.16929384     1.06720
C3071       C  0.77171277  0.87806909  0.10277191     1.06310
C3072       C  0.75354031  0.74251205  0.19518298     1.05860
C3073       C  0.74550393  0.79763250  0.26453122     1.06280
C3074       C  0.77110869  0.96634732  0.19546208     1.05800
H3075       H  0.76253622  0.80806568  0.20645509     0.32480
O3076       O  0.73977210  0.80934695  0.19933547    -1.30070
H3077       H  0.70421353  0.90913205  0.20692936     0.32500
O3078       O  0.70240166  0.88489230  0.19973608    -1.31450
O3079       O  0.00890844  0.54802676  0.58750829    -0.86890
O3080       O  0.64196141  0.52437328  0.48683807    -0.87060
O3081       O  0.59221960  0.49832539  0.58701860    -0.88720
O3082       O  0.60806026  0.61030209  0.54610820    -0.87480
O3083       O  0.58316417  0.61853431  0.50546518    -0.87070
O3084       O  0.54476124  0.93079922  0.58871488    -0.88440
O3085       O  0.64983043  0.56005536  0.52615578    -0.86920
O3086       O  0.57647604  0.56812289  0.58898647    -0.86510
Zr3087     Zr  0.58438221  0.53766277  0.54876846     2.84310
O3088       O  0.58408004  0.53665041  0.50114902    -1.08480
O3089       O  0.52080918  0.98757740  0.56379658    -1.09210
C3090       C  0.54489859  0.56714015  0.59864983     1.06220
C3091       C  0.66302386  0.55433678  0.50306472     1.06160
C3092       C  0.57544503  0.96237469  0.59821447     1.09140
C3093       C  0.60049727  0.63151336  0.52905512     1.06920
H3094       H  0.59405589  0.97399378  0.54022361     0.32480
O3095       O  0.57135494  0.97538362  0.53308288    -1.29430
H3096       H  0.53471154  0.57449892  0.54043022     0.32150
O3097       O  0.53332615  0.55046766  0.53322383    -1.31110
O3098       O  0.52977026  0.92545622  0.44769047    -0.86880
O3099       O  0.89786942  0.95205632  0.54564469    -0.88380
O3100       O  0.55667777  0.90076223  0.54560367    -0.86960
O3101       O  0.58488224  0.56124334  0.44803265    -0.87010
O3102       O  0.98511308  0.57269139  0.48693482    -0.86720
O3103       O  0.96008537  0.91465424  0.58689343    -0.86530
O3104       O  0.93722744  0.86771680  0.48629724    -0.86900
O3105       O  0.94815003  0.97917870  0.44802223    -0.86360
O3106       O  0.96459297  0.85930421  0.52568125    -0.87430
O3107       O  0.99781013  0.54575638  0.44507615    -0.86580
O3108       O  0.59020356  0.92634694  0.50519627    -0.86980
O3109       O  0.94008930  0.96209433  0.58877691    -0.86700
O3110       O  0.94872064  0.54427471  0.52599022    -0.86350
O3111       O  0.60229499  0.51197324  0.44525034    -0.86760
O3112       O  0.96309099  0.90830514  0.44471695    -0.87060
O3113       O  0.89009980  0.91899547  0.50510164    -0.88400
Zr3114     Zr  0.56996715  0.97288792  0.48522770     2.83100
Zr3115     Zr  0.97076353  0.00113834  0.54879172     2.83500
Zr3116     Zr  0.50737323  0.92422300  0.54842767     2.84090
Zr3117     Zr  0.53647984  0.55224833  0.48533421     2.83360
Zr3118     Zr  0.95682099  0.93943630  0.48522542     2.84220
O3119       O  0.97254388  0.00250566  0.50115481    -1.08970
O3120       O  0.50661087  0.92519035  0.50083414    -1.08470
C3121       C  0.49428780  0.90766488  0.43591893     1.06190
C3122       C  0.87661361  0.92348932  0.52843600     1.08810
C3123       C  0.58552738  0.90834743  0.52860017     1.06360
C3124       C  0.60319061  0.54400638  0.43646924     1.06720
C3125       C  0.95477123  0.56328630  0.50288794     1.06310
C3126       C  0.94089640  0.93125492  0.59815678     1.05860
C3127       C  0.94617455  0.84657463  0.50242404     1.06280
C3128       C  0.96561115  0.01469151  0.43634156     1.05800
H3129       H  0.93373309  0.91460623  0.54012484     0.32480
O3130       O  0.95789833  0.93735572  0.53307382    -1.30070
H3131       H  0.52114152  0.98847566  0.44999007     0.32500
O3132       O  0.52110987  0.98825395  0.46970265    -1.31450
C3133       C  0.57624227  0.62406145  0.83205120    -0.09560
C3134       C  0.56617537  0.62980691  0.85832895     0.06640
C3135       C  0.59455110  0.66181416  0.87474400    -0.03320
C3136       C  0.63312795  0.68695461  0.86479677    -0.07770
C3137       C  0.64332720  0.68091608  0.83862096     0.05750
C3138       C  0.61468496  0.64939184  0.82202852    -0.02800
Br3139     Br  0.62649020  0.63866233  0.78592509    -0.02490
H3140       H  0.55450767  0.59916977  0.81965427     0.09670
H3141       H  0.65493645  0.71176163  0.87721446     0.07680
Br3142     Br  0.58206962  0.67328194  0.91049382    -0.02920
C3143       C  0.52404168  0.74875765  0.04333485    -0.09560
C3144       C  0.55326388  0.77669340  0.02526724     0.06640
C3145       C  0.55533299  0.76542908  0.99838219    -0.03320
C3146       C  0.52818715  0.72639539  0.98997988    -0.07770
C3147       C  0.49857333  0.69862794  0.00794320     0.05750
C3148       C  0.49684077  0.70977847  0.03493672    -0.02800
Br3149     Br  0.45704809  0.67408149  0.06066821    -0.02490
H3150       H  0.52227490  0.75749477  0.06410641     0.09670
H3151       H  0.02980742  0.71771544  0.96916648     0.07680
Br3152     Br  0.59495655  0.80149073  0.97273017    -0.02920
C3153       C  0.92678866  0.82942039  0.20742592    -0.09560
C3154       C  0.90006171  0.79684243  0.19096143     0.06640
C3155       C  0.91230474  0.79045406  0.16542963    -0.03320
C3156       C  0.95143835  0.81656655  0.15683376    -0.07770
C3157       C  0.97822410  0.84895011  0.17340242     0.05750
C3158       C  0.96596135  0.85539815  0.19888136    -0.02800
Br3159     Br  0.00093822  0.89952611  0.22218545    -0.02490
H3160       H  0.91719341  0.83418748  0.22720820     0.09670
H3161       H  0.96110018  0.81179584  0.13707696     0.07680
Br3162     Br  0.87765629  0.74590902  0.14229092    -0.02920
C3163       C  0.79937545  0.01821070  0.53151271    -0.09560
C3164       C  0.80890613  0.51395795  0.50473864     0.06640
C3165       C  0.77980259  0.48345118  0.48771193    -0.03320
C3166       C  0.74147866  0.95767032  0.49786104    -0.07770
C3167       C  0.73206453  0.96167691  0.52474263     0.05750
C3168       C  0.76110212  0.99245268  0.54165418    -0.02800
Br3169     Br  0.75028421  0.00162399  0.57846661    -0.02490
H3170       H  0.82157527  0.04207044  0.54436024     0.09670
H3171       H  0.71934391  0.93370403  0.48505155     0.07680
Br3172     Br  0.79095587  0.47422824  0.45095503    -0.02920
C3173       C  0.71974891  0.59883448  0.66809727    -0.09560
C3174       C  0.71416746  0.60839597  0.69456175     0.06640
C3175       C  0.68313542  0.57923660  0.71123018    -0.03320
C3176       C  0.65781645  0.54094861  0.70096243    -0.07770
C3177       C  0.66306361  0.53154319  0.67436703     0.05750
C3178       C  0.69462105  0.56046372  0.65790074    -0.02800
Br3179     Br  0.70558998  0.54919245  0.62170318    -0.02490
H3180       H  0.74417831  0.62103209  0.65559718     0.09670
H3181       H  0.63331101  0.51881370  0.71344353     0.07680
Br3182     Br  0.67291925  0.59008744  0.74773544    -0.02920
C3183       C  0.86562038  0.87594807  0.34585675    -0.09560
C3184       C  0.82478493  0.86496172  0.34500127     0.06640
C3185       C  0.81299839  0.89354030  0.35075263    -0.03320
C3186       C  0.84223553  0.93286110  0.35712266    -0.07770
C3187       C  0.88309439  0.94391821  0.35785160     0.05750
C3188       C  0.89488892  0.91530970  0.35217200    -0.02800
Br3189     Br  0.95053529  0.92905330  0.35201269    -0.02490
H3190       H  0.87483273  0.85427160  0.34051723     0.09670
H3191       H  0.83300536  0.95456582  0.36233595     0.07680
Br3192     Br  0.75740624  0.87994403  0.35039374    -0.02920
C3193       C  0.94368251  0.54424765  0.19710244    -0.09560
C3194       C  0.92694880  0.53394648  0.17102378     0.06640
C3195       C  0.92331082  0.56238398  0.15468352    -0.03320
C3196       C  0.93636777  0.60078514  0.16484681    -0.07770
C3197       C  0.95269799  0.61093599  0.19105033     0.05750
C3198       C  0.95689391  0.58268109  0.20721259    -0.02800
Br3199     Br  0.98135667  0.59514969  0.24284186    -0.02490
H3200       H  0.94718113  0.52258966  0.20934851     0.09670
H3201       H  0.93274446  0.62239680  0.15263666     0.07680
Br3202     Br  0.89941556  0.55010533  0.11888015    -0.02920
C3203       C  0.64351634  0.66532584  0.35607145    -0.09560
C3204       C  0.61377147  0.62445656  0.35703798     0.06640
C3205       C  0.57329282  0.61236129  0.35118583    -0.03320
C3206       C  0.56308886  0.64138957  0.34440247    -0.07770
C3207       C  0.59291682  0.68222933  0.34335680     0.05750
C3208       C  0.63331987  0.69429976  0.34932527    -0.02800
Br3209     Br  0.67522439  0.74997056  0.34878651    -0.02490
H3210       H  0.67449736  0.67479065  0.36143010     0.09670
H3211       H  0.53216058  0.63200918  0.33894851     0.07680
Br3212     Br  0.53148140  0.55665888  0.35149379    -0.02920
C3213       C  0.73575522  0.98099309  0.01266798    -0.09560
C3214       C  0.76514224  0.52201025  0.01332935     0.06640
C3215       C  0.80523806  0.53406098  0.02031444    -0.03320
C3216       C  0.81550140  0.50486268  0.02645123    -0.07770
C3217       C  0.78613721  0.96383338  0.02558088     0.05750
C3218       C  0.74603756  0.95181198  0.01864083    -0.02800
Br3219     Br  0.70484843  0.89599032  0.01628911    -0.02490
H3220       H  0.70515790  0.97164382  0.00633078     0.09670
H3221       H  0.84614849  0.51415244  0.03261856     0.07680
Br3222     Br  0.84653829  0.58987938  0.02182114    -0.02920
C3223       C  0.79789088  0.72375695  0.51874129    -0.09560
C3224       C  0.75966753  0.69916622  0.50745010     0.06640
C3225       C  0.73344300  0.71431780  0.50276087    -0.03320
C3226       C  0.74537712  0.75371105  0.51016814    -0.07770
C3227       C  0.78343917  0.77818057  0.52167345     0.05750
C3228       C  0.80984264  0.76318701  0.52612166    -0.02800
Br3229     Br  0.86117479  0.79451450  0.54376306    -0.02490
H3230       H  0.81836809  0.71224854  0.52168426     0.09670
H3231       H  0.72483584  0.76516467  0.50732568     0.07680
Br3232     Br  0.68221345  0.68320854  0.48496177    -0.02920
C3233       C  0.96345171  0.86295138  0.68942241    -0.09560
C3234       C  0.92554356  0.84873144  0.67748136     0.06640
C3235       C  0.89982855  0.80719749  0.67295351    -0.03320
C3236       C  0.91234153  0.78023945  0.68061393    -0.07770
C3237       C  0.95040759  0.79449724  0.69233330     0.05750
C3238       C  0.97591216  0.83598933  0.69715846    -0.02800
Br3239     Br  0.52684601  0.85688155  0.71550135    -0.02490
H3240       H  0.98345789  0.89505009  0.69237288     0.09670
H3241       H  0.89238445  0.74814849  0.67759154     0.07680
Br3242     Br  0.84859568  0.78628531  0.65501137    -0.02920
C3243       C  0.59128404  0.89340526  0.82138989    -0.09560
C3244       C  0.59376784  0.86607553  0.83939449     0.06640
C3245       C  0.60773665  0.87769895  0.86612898    -0.03320
C3246       C  0.61922158  0.91658133  0.87444206    -0.07770
C3247       C  0.61633270  0.94381089  0.85654954     0.05750
C3248       C  0.60268274  0.93228874  0.82972601    -0.02800
Br3249     Br  0.59743680  0.96748708  0.80417733    -0.02490
H3250       H  0.58032725  0.88431871  0.80072314     0.09670
H3251       H  0.63020068  0.92562017  0.89510898     0.07680
Br3252     Br  0.61295556  0.84244621  0.89164694    -0.02920
C3253       C  0.71166060  0.61862523  0.17520629    -0.09560
C3254       C  0.67691763  0.58993340  0.16107807     0.06640
C3255       C  0.67714514  0.55483867  0.15150001    -0.03320
C3256       C  0.70174488  0.54281841  0.16422620    -0.07770
C3257       C  0.73282555  0.56938792  0.18134426     0.05750
C3258       C  0.74057987  0.60912582  0.18382898    -0.02800
Br3259     Br  0.79187061  0.65136076  0.19632202    -0.02490
H3260       H  0.71772739  0.64898439  0.17874223     0.09670
H3261       H  0.69775774  0.51342000  0.15948270     0.07680
Br3262     Br  0.65923530  0.53053975  0.11609552    -0.02920
C3263       C  0.57690905  0.91041686  0.33341840    -0.09560
C3264       C  0.56738689  0.89565767  0.36003447     0.06640
C3265       C  0.59661051  0.89393462  0.37671387    -0.03320
C3266       C  0.63477883  0.90660912  0.36641877    -0.07770
C3267       C  0.64417487  0.92092181  0.33974638     0.05750
C3268       C  0.61529103  0.92346246  0.32317420    -0.02800
Br3269     Br  0.62683881  0.94561830  0.28687194    -0.02490
H3270       H  0.55470984  0.91251926  0.32084732     0.09670
H3271       H  0.65687223  0.90429155  0.37898146     0.07680
Br3272     Br  0.58612807  0.87338701  0.41330882    -0.02920
C3273       C  0.79829901  0.72870477  0.03188221    -0.09560
C3274       C  0.81184661  0.75248448  0.00841457     0.06640
C3275       C  0.78643613  0.76295213  0.99409513    -0.03320
C3276       C  0.74740227  0.74899815  0.00330347    -0.07770
C3277       C  0.73376162  0.72493518  0.02661466     0.05750
C3278       C  0.75923936  0.71474135  0.04110125    -0.02800
Br3279     Br  0.74172716  0.68126027  0.07315974    -0.02490
H3280       H  0.81769340  0.72007725  0.04249429     0.09670
H3281       H  0.72792737  0.75746410  0.99262717     0.07680
Br3282     Br  0.80370896  0.79623627  0.96201440    -0.02920
C3283       C  0.97907322  0.71901719  0.52784186    -0.09560
C3284       C  0.99297655  0.74889978  0.50777293     0.06640
C3285       C  0.53164195  0.76425012  0.49638048    -0.03320
C3286       C  0.55620030  0.74954773  0.50520725    -0.07770
C3287       C  0.54247868  0.71989647  0.52535905     0.05750
C3288       C  0.50383288  0.70449971  0.53687934    -0.02800
Br3289     Br  0.98405992  0.66411110  0.56500993    -0.02490
H3290       H  0.94891589  0.70671274  0.53611735     0.09670
H3291       H  0.58641593  0.76202809  0.49697666     0.07680
Br3292     Br  0.55215525  0.80537220  0.46893202    -0.02920
C3293       C  0.88959854  0.90677831  0.82908160    -0.09560
C3294       C  0.88724371  0.89591551  0.85650611     0.06640
C3295       C  0.85786549  0.89642284  0.87374920    -0.03320
C3296       C  0.83194712  0.90850475  0.86336655    -0.07770
C3297       C  0.83441290  0.91957748  0.83602915     0.05750
C3298       C  0.86351313  0.91879976  0.81866825    -0.02800
Br3299     Br  0.87042296  0.93533821  0.78100933    -0.02490
H3300       H  0.91237018  0.90678314  0.81594629     0.09670
H3301       H  0.80913576  0.90840710  0.87651891     0.07680
Br3302     Br  0.85016501  0.87962055  0.91134115    -0.02920
C3303       C  0.96674361  0.60895247  0.67706379    -0.09560
C3304       C  0.97876423  0.57998928  0.67929446     0.06640
C3305       C  0.95127144  0.54056771  0.68788167    -0.03320
C3306       C  0.91186776  0.53044917  0.69398904    -0.07770
C3307       C  0.89975414  0.55932379  0.69155492     0.05750
C3308       C  0.92732734  0.59883223  0.68312640    -0.02800
Br3309     Br  0.91204218  0.63927687  0.67893732    -0.02490
H3310       H  0.98766016  0.63899581  0.66957202     0.09670
H3311       H  0.89089406  0.50033721  0.70134090     0.07680
Br3312     Br  0.96651641  0.50006025  0.69166761    -0.02920
loop_ 
_geom_bond_atom_site_label_1 
_geom_bond_atom_site_label_2 
_geom_bond_distance 
_geom_bond_site_symmetry_2 
_ccdc_geom_bond_type 
C1          C498   1.504       .  S
C1          C830   1.407       .  A
C1          C834   1.430       .  A
C2            C3   1.390       .  A
C2          C829   1.407       .  A
C2          H835   1.084       .  S
C3          C823   1.454       .  S
C3            C4   1.382       .  A
C4            C5   1.390       .  A
C4            H8   1.085       .  S
C5          C336   1.489       .  S
C5            C6   1.429       .  A
C6          C829   1.430       .  A
C6            H9   1.082       .  S
H7          C830   1.084       .  S
C10         C529   1.505       .  S
C10          C11   1.408       .  A
C10          C15   1.428       .  A
C11          C12   1.392       .  A
C11          H16   1.084       .  S
C12        C2476   1.453   1_455  S
C12          C13   1.384       .  A
C13          C14   1.387       .  A
C13        H1673   1.085   1_455  S
C14         C606   1.487       .  S
C14          C15   1.429       .  A
C15          H18   1.083       .  S
H17        C1669   1.085       .  S
C19        C1166   1.499       .  S
C19          C20   1.407       .  A
C19          C24   1.428       .  A
C20          C21   1.391       .  A
C20          H25   1.084       .  S
C21         C813   1.456       .  S
C21          C22   1.376       .  A
C22          C23   1.387       .  A
C22          H26   1.085       .  S
C23         C534   1.481       .  S
C23          C24   1.427       .  A
C24          H27   1.083       .  S
C28         C374   1.503       .  S
C28          C29   1.410       .  A
C28          C33   1.427       .  A
C29          C30   1.394       .  A
C29          H34   1.083       .  S
C30         C810   1.457       .  S
C30          C31   1.378       .  A
C31          C32   1.383       .  A
C31          H35   1.086       .  S
C32         C390   1.479       .  S
C32          C33   1.427       .  A
C33          H36   1.083       .  S
C37         C643   1.499       .  S
C37          C38   1.407       .  A
C37          C42   1.427       .  A
C38          C39   1.387       .  A
C38          H43   1.084       .  S
C39         C800   1.446       .  S
C39          C40   1.378       .  A
C40          C41   1.388       .  A
C40          H44   1.086       .  S
C41         C444   1.482       .  S
C41          C42   1.427       .  A
C42          H45   1.082       .  S
C46         C609   1.497       .  S
C46          C47   1.426       .  A
C46          C51   1.407       .  A
C47          C48   1.428       .  A
C47          H52   1.083       .  S
C48         C532   1.482       .  S
C48          C49   1.387       .  A
C49          C50   1.378       .  A
C49          H53   1.085       .  S
C50         C803   1.444       .  S
C50          C51   1.387       .  A
C51          H54   1.084       .  S
C55         C393   1.503   1_556  S
C55          C56   1.409   1_556  A
C55          C60   1.428       .  A
C56          C57   1.390   1_554  A
C56          H61   1.084       .  S
C57         C790   1.449   1_556  S
C57          C58   1.379       .  A
C58          C59   1.385       .  A
C58          H62   1.085       .  S
C59         C367   1.484       .  S
C59          C60   1.430       .  A
C60          H63   1.083       .  S
C64         C427   1.503       .  S
C64          C65   1.407       .  A
C64          C69   1.431       .  A
C65          C66   1.388       .  A
C65          H70   1.084       .  S
C66         C793   1.447       .  S
C66          C67   1.377       .  A
C67          C68   1.387       .  A
C67          H71   1.086       .  S
C68         C552   1.486       .  S
C68          C69   1.430       .  A
C69          H72   1.082       .  S
C73         C446   1.501       .  S
C73          C74   1.409       .  A
C73          C78   1.428       .  A
C74        C1731   1.391       .  A
C74          H79   1.084       .  S
C75         C780   1.454       .  S
C75          C76   1.377       .  A
C75        C1730   1.391   1_455  A
C76        C1733   1.386   1_455  A
C76          H80   1.086       .  S
C77        C2293   1.480       .  S
C77          C78   1.426       .  A
C77        C1732   1.386       .  A
C78          H81   1.082       .  S
C82         C583   1.484       .  S
C82          C83   1.385       .  A
C82          C87   1.430       .  A
C83          C84   1.377       .  A
C83          H88   1.085       .  S
C84         C783   1.452       .  S
C84          C85   1.391       .  A
C85          C86   1.407       .  A
C85          H89   1.084       .  S
C86        C1310   1.502       .  S
C86          C87   1.429       .  A
C87          H90   1.082       .  S
C91         C554   1.500       .  S
C91          C92   1.415       .  A
C91          C96   1.423       .  A
C92          C93   1.410       .  A
C92          H97   1.079       .  S
C93         C770   1.502       .  S
C93          C94   1.384       .  A
C94          C95   1.383       .  A
C94          H98   1.072       .  S
C95         C421   1.482       .  S
C95          C96   1.420       .  A
C96          H99   1.083       .  S
C100        C590   1.503       .  S
C100        C929   1.403       .  A
C100        C933   1.426       .  A
C101        C102   1.397       .  A
C101        C928   1.403       .  A
C101        H934   1.083       .  S
C102        C773   1.467       .  S
C102        C103   1.392       .  A
C103        C104   1.386       .  A
C103        H107   1.083       .  S
C104        C475   1.490       .  S
C104        C105   1.428       .  A
C105        C928   1.426       .  A
C105        H108   1.083       .  S
H106        C929   1.083       .  S
C109       C2024   1.500   1_455  S
C109        C110   1.428       .  A
C109        C114   1.407       .  A
C110        C111   1.426       .  A
C110        H115   1.082       .  S
C111        C530   1.483       .  S
C111        C112   1.386       .  A
C112        C113   1.380       .  A
C112        H116   1.086       .  S
C113        C760   1.456       .  S
C113        C114   1.391       .  A
C114        H117   1.083       .  S
C118        C337   1.502       .  S
C118        C119   1.408       .  A
C118        C123   1.427       .  A
C119        C948   1.393   1_545  A
C119        H124   1.083       .  S
C120        C763   1.457       .  S
C120        C121   1.382       .  A
C120        C947   1.393       .  A
C121        C950   1.384       .  A
C121        H125   1.085       .  S
C122       C1220   1.483       .  S
C122        C123   1.428       .  A
C122        C949   1.384   1_545  A
C123        H126   1.083       .  S
C127        C500   1.502       .  S
C127        C128   1.408       .  A
C127        C132   1.427       .  A
C128        C129   1.391       .  A
C128        H133   1.084       .  S
C129        C750   1.450       .  S
C129        C130   1.381       .  A
C130        C131   1.388       .  A
C130        H134   1.085       .  S
C131        C642   1.485       .  S
C131        C132   1.429       .  A
C132        H135   1.083       .  S
C136        C536   1.500       .  S
C136        C137   1.408   1_455  A
C136       C1797   1.427   1_455  A
C137       C1794   1.389       .  A
C137        H142   1.084   1_655  S
C138        C753   1.451       .  S
C138        C139   1.379       .  A
C138       C1793   1.389       .  A
C139        C140   1.390       .  A
C139        H143   1.085       .  S
C140        C371   1.484       .  S
C140        C141   1.427       .  A
C141       C1792   1.427       .  A
C141       H1800   1.082       .  S
H144       C1797   1.082   1_455  S
C145        C607   1.504       .  S
C145        C146   1.431       .  A
C145        C150   1.406       .  A
C146        C147   1.430       .  A
C146        H151   1.082       .  S
C147        C447   1.489       .  S
C147        C148   1.389       .  A
C148        C149   1.380       .  A
C148        H152   1.085       .  S
C149        C740   1.450       .  S
C149        C150   1.389       .  A
C150        H153   1.084       .  S
C154        C638   1.503       .  S
C154        C155   1.428       .  A
C154        C159   1.407       .  A
C155        C156   1.430       .  A
C155        H160   1.083       .  S
C156        C499   1.486       .  S
C156        C157   1.387       .  A
C157        C158   1.381       .  A
C157        H161   1.085       .  S
C158        C743   1.449       .  S
C158        C159   1.390       .  A
C159        H162   1.084       .  S
C163        C423   1.506   1_556  S
C163        C164   1.409   1_556  A
C163        C168   1.428       .  A
C164        C165   1.394       .  A
C164        H169   1.084       .  S
C165        C730   1.455       .  S
C165        C166   1.384   1_554  A
C166        C167   1.387       .  A
C166        H170   1.085       .  S
C167        C369   1.487       .  S
C167        C168   1.429       .  A
C168        H171   1.083       .  S
C172        C425   1.502       .  S
C172        C173   1.429       .  A
C172        C177   1.408       .  A
C173        C174   1.428       .  A
C173        H178   1.082       .  S
C174        C587   1.488       .  S
C174        C175   1.389       .  A
C175        C176   1.382       .  A
C175        H179   1.085       .  S
C176        C733   1.455       .  S
C176        C177   1.391       .  A
C177        H180   1.084       .  S
C181        C478   1.503       .  S
C181        C182   1.407       .  A
C181        C186   1.429       .  A
C182        C183   1.391       .  A
C182        H187   1.084       .  S
C183        C720   1.455       .  S
C183        C184   1.382       .  A
C184        C185   1.388       .  A
C184        H188   1.085       .  S
C185        C640   1.486       .  S
C185        C186   1.428       .  A
C186        H189   1.082       .  S
C190       C2136   1.504   1_455  S
C190        C191   1.429       .  A
C190        C195   1.408       .  A
C191        C192   1.430       .  A
C191        H196   1.083       .  S
C192        C585   1.487       .  S
C192        C193   1.386       .  A
C193        C194   1.382       .  A
C193        H197   1.085       .  S
C194        C723   1.453       .  S
C194        C195   1.391       .  A
C195        H198   1.084       .  S
C199        C481   1.487       .  S
C199        C200   1.385       .  A
C199        C204   1.431       .  A
C200        C201   1.379       .  A
C200        H205   1.085       .  S
C201        C713   1.453       .  S
C201        C202   1.391       .  A
C202       C1859   1.408       .  A
C202       H1862   1.084       .  S
C203        C553   1.506       .  S
C203       C1858   1.408   1_455  A
C203       C1860   1.430   1_455  A
C204       C1859   1.430       .  A
C204       H1863   1.083       .  S
H206       C1858   1.084   1_455  S
H207       C1860   1.083       .  S
C208        C584   1.498       .  S
C208        C209   1.408       .  A
C208        C213   1.428       .  A
C209        C210   1.390       .  A
C209        H214   1.084       .  S
C210       C1538   1.453       .  S
C210        C211   1.377       .  A
C211        C212   1.387       .  A
C211       H1043   1.086       .  S
C212        C428   1.481       .  S
C212        C213   1.425       .  A
C213        H216   1.083       .  S
H215       C1039   1.086   1_545  S
C217        C445   1.503       .  S
C217        C218   1.409       .  A
C217        C222   1.427       .  A
C218        C219   1.393       .  A
C218        H223   1.083       .  S
C219        C700   1.455       .  S
C219        C220   1.383       .  A
C220        C221   1.387       .  A
C220        H224   1.085       .  S
C221        C589   1.485       .  S
C221        C222   1.427       .  A
C222        H225   1.083       .  S
C226        C476   1.502       .  S
C226        C227   1.407       .  A
C226        C231   1.429       .  A
C227       C1056   1.391   1_545  A
C227        H232   1.084       .  S
C228        C703   1.456       .  S
C228        C229   1.382       .  A
C228       C1055   1.391       .  A
C229       C1058   1.389       .  A
C229        H233   1.085       .  S
C230       C1472   1.488       .  S
C230        C231   1.428       .  A
C230       C1057   1.389   1_545  A
C231        H234   1.082       .  S
C235        C531   1.500       .  S
C235        C236   1.429       .  A
C235        C240   1.407       .  A
C236        C237   1.427       .  A
C236        H241   1.082       .  S
C237        C339   1.481       .  S
C237        C238   1.385       .  A
C238        C239   1.375       .  A
C238        H242   1.086       .  S
C239        C690   1.451       .  S
C239        C240   1.390       .  A
C240        H243   1.084       .  S
C244        C533   1.502       .  S
C244        C245   1.428       .  A
C244        C249   1.408       .  A
C245        C246   1.430       .  A
C245        H250   1.083       .  S
C246        C608   1.482       .  S
C246        C247   1.383       .  A
C247        C248   1.377       .  A
C247       H1079   1.085       .  S
C248       C1521   1.452       .  S
C248        C249   1.391       .  A
C249        H252   1.084       .  S
H251       C1075   1.085   1_545  S
C253        C641   1.501       .  S
C253        C254   1.407       .  A
C253        C258   1.429       .  A
C254        C255   1.391       .  A
C254        H259   1.084       .  S
C255        C680   1.453       .  S
C255        C256   1.376       .  A
C256        C257   1.386       .  A
C256        H260   1.086       .  S
C257        C479   1.482       .  S
C257        C258   1.427       .  A
C258        H261   1.082       .  S
C262        C639   1.504       .  S
C262        C263   1.429       .  A
C262        C267   1.409       .  A
C263        C264   1.430       .  A
C263        H268   1.083       .  S
C264        C501   1.484       .  S
C264        C265   1.384       .  A
C265        C266   1.378       .  A
C265        H269   1.085       .  S
C266        C683   1.454       .  S
C266        C267   1.392       .  A
C267        H270   1.084       .  S
C271        C588   1.495       .  S
C271        C272   1.406       .  A
C271        C276   1.427       .  A
C272        C273   1.390       .  A
C272        H277   1.083       .  S
C273        C670   1.451       .  S
C273        C274   1.380       .  A
C274        C275   1.385       .  A
C274        H278   1.085       .  S
C275        C477   1.480       .  S
C275        C276   1.426       .  A
C276        H279   1.083       .  S
C280        C586   1.500       .  S
C280        C281   1.407       .  A
C280        C285   1.429       .  A
C281        C282   1.389       .  A
C281        H286   1.084       .  S
C282       C2329   1.450   1_455  S
C282        C283   1.378       .  A
C283        C284   1.385       .  A
C283        H287   1.086   1_455  S
C284        C424   1.482       .  S
C284        C285   1.427       .  A
C285        H288   1.082       .  S
C289        C422   1.502   1_556  S
C289        C290   1.409   1_556  A
C289        C294   1.426       .  A
C290        C291   1.393   1_554  A
C290        H295   1.083       .  S
C291       C2319   1.460   1_556  S
C291        C292   1.382       .  A
C292        C293   1.386       .  A
C292        H296   1.085       .  S
C293        C373   1.484       .  S
C293        C294   1.428       .  A
C294        H297   1.083       .  S
C298        C391   1.500       .  S
C298        C299   1.427       .  A
C298        C303   1.409       .  A
C299        C300   1.425       .  A
C299        H304   1.082       .  S
C300        C555   1.481       .  S
C300        C301   1.387       .  A
C301        C302   1.381       .  A
C301        H305   1.086       .  S
C302        C660   1.459       .  S
C302        C303   1.393       .  A
C303        H306   1.083       .  S
C307        C370   1.501       .  S
C307        C308   1.407       .  A
C307        C312   1.430       .  A
C308        C309   1.390       .  A
C308        H313   1.084       .  S
C309        C653   1.450       .  S
C309        C310   1.376       .  A
C310        C311   1.385       .  A
C310        H314   1.086       .  S
C311        C535   1.482       .  S
C311        C312   1.428       .  A
C312        H315   1.082       .  S
C316        C372   1.502       .  S
C316        C317   1.408       .  A
C316        C321   1.428       .  A
C317       C1974   1.391       .  A
C317        H322   1.084       .  S
C318        C650   1.450       .  S
C318        C319   1.377       .  A
C318       C1973   1.391   1_455  A
C319       C1976   1.383   1_455  A
C319        H323   1.085       .  S
C320       C2082   1.481       .  S
C320        C321   1.430       .  A
C320       C1975   1.383       .  A
C321        H324   1.083       .  S
O325       Zr361   2.502       .  S
O325        C336   1.309       .  A
O326       Zr360   2.463       .  S
O326        C337   1.295       .  A
O327       Zr333   2.455       .  S
O327        C338   1.293       .  A
O328       Zr333   2.498       .  S
O328        C339   1.309       .  A
O329       Zr363   2.388       .  S
O329        C339   1.281       .  A
O330       Zr362   2.464       .  S
O330        C338   1.301       .  A
O331       Zr333   2.468       .  S
O331        C337   1.302       .  A
O332       Zr333   2.402       .  S
O332        C336   1.284       .  A
Zr333       O334   2.314       .  S
Zr333       O335   2.353       .  S
Zr333       O343   2.346       .  S
Zr333       O341   2.348       .  S
O334       Zr360   2.332       .  S
O334       Zr363   2.354       .  S
O335       Zr361   2.314       .  S
O335       Zr362   2.333       .  S
C338        C847   1.499   1_545  S
H340        O341   0.962       .  S
O341       Zr360   2.365       .  S
O341       Zr362   2.313       .  S
H342        O343   0.965       .  S
O343       Zr361   2.346       .  S
O343       Zr363   2.349       .  S
O344       Zr360   2.512       .  S
O344        C367   1.311       .  A
O345       Zr361   2.455       .  S
O345        C368   1.293       .  A
O346       Zr362   2.517       .  S
O346        C369   1.312       .  A
O347       Zr363   2.456       .  S
O347        C370   1.292       .  A
O348       Zr363   2.494       .  S
O348        C371   1.307       .  A
O349       Zr362   2.466       .  S
O349        C372   1.295       .  A
O350       Zr364   2.511       .  S
O350        C373   1.311       .  A
O351       Zr364   2.470       .  S
O351        C374   1.296       .  A
O352       Zr362   2.380       .  S
O352        C373   1.280       .  A
O353       Zr363   2.464       .  S
O353        C374   1.300       .  A
O354       Zr360   2.384       .  S
O354        C369   1.281       .  A
O355       Zr361   2.469       .  S
O355        C372   1.302       .  A
O356       Zr361   2.398       .  S
O356        C371   1.283       .  A
O357       Zr360   2.463       .  S
O357        C370   1.301       .  A
O358       Zr364   2.379       .  S
O358        C367   1.280       .  A
O359       Zr364   2.462       .  S
O359        C368   1.300       .  A
Zr360       O366   2.338       .  S
Zr360       O378   2.314       .  S
Zr361       O365   2.357       .  S
Zr361       O376   2.348       .  S
Zr362       O366   2.339       .  S
Zr362       O376   2.367       .  S
Zr363       O365   2.314       .  S
Zr363       O378   2.343       .  S
Zr364       O365   2.332       .  S
Zr364       O366   2.339       .  S
Zr364       O378   2.364       .  S
Zr364       O376   2.313       .  S
C368       C1765   1.500       .  S
H375        O376   0.962       .  S
H377        O378   0.962       .  S
O379       Zr415   2.519       .  S
O379        C390   1.313       .  A
O380       Zr414   2.459       .  S
O380        C391   1.293       .  A
O381       Zr387   2.516       .  S
O381        C392   1.312       .  A
O382      Zr2043   2.472       .  S
O382        C393   1.296   1_556  A
O383       Zr417   2.463       .  S
O383        C393   1.300       .  A
O384       Zr416   2.375       .  S
O384       C1220   1.279       .  A
O385       Zr387   2.456   1_554  S
O385        C391   1.299       .  A
O386      Zr2043   2.366       .  S
O386        C390   1.277       .  A
Zr387      O2038   2.472   1_455  S
Zr387      O2042   2.366       .  S
Zr387       O388   2.329   1_556  S
Zr387       O389   2.337       .  S
Zr387       O395   2.312       .  S
Zr387      O2053   2.367   1_455  S
O388       Zr414   2.354       .  S
O388      Zr2073   2.316   1_455  S
O389      Zr2071   2.337   1_455  S
O389      Zr1244   2.338       .  S
C392        C950   1.483       .  S
C392       O1212   1.279       .  A
H394        O395   0.962       .  S
O395       Zr414   2.344   1_556  S
O395      Zr1244   2.365       .  S
H396        O397   0.962       .  S
O397       Zr415   2.311       .  S
O397       Zr417   2.346   1_556  S
O397      Zr2043   2.367       .  S
O398      Zr1242   2.507       .  S
O398        C421   1.310       .  A
O399      Zr1243   2.470   1_545  S
O399        C422   1.296   1_556  A
O400       Zr416   2.471       .  S
O400        C423   1.296   1_556  A
O401       Zr417   2.498       .  S
O401       C2080   1.308       .  A
O402       Zr417   2.461       .  S
O402        C425   1.294       .  A
O403       Zr416   2.517       .  S
O403        C426   1.313   1_455  A
O404       Zr418   2.460       .  S
O404        C427   1.293       .  A
O405      Zr2074   2.491   1_565  S
O405       C1256   1.307       .  A
O406       Zr416   2.462   1_554  S
O406        C427   1.301       .  A
O407       Zr417   2.394       .  S
O407        C428   1.283       .  A
O408      Zr1242   2.469       .  S
O408        C423   1.302       .  A
O409      Zr1243   2.369   1_545  S
O409       C2082   1.278       .  A
O410       Zr415   2.462   1_554  S
O410        C425   1.300       .  A
O411       Zr414   2.387       .  S
O411        C424   1.280       .  A
O412       Zr418   2.389       .  S
O412        C421   1.281       .  A
O413      Zr2074   2.464       .  S
O413        C422   1.300       .  A
Zr414      O1226   2.507       .  S
Zr414      O1236   2.469       .  S
Zr414       O432   2.345       .  S
Zr414      O1248   2.316       .  S
Zr415      O1227   2.470       .  S
Zr415      O1237   2.369       .  S
Zr415       O419   2.330   1_556  S
Zr415      O2045   2.337       .  S
Zr415      O2914   2.368       .  S
Zr416       O420   2.332   1_556  S
Zr416       O430   2.311       .  S
Zr416      O1217   2.338   1_545  S
Zr416      O1223   2.365       .  S
Zr417       O419   2.355       .  S
Zr417      O2044   2.316       .  S
Zr417      O2088   2.345       .  S
Zr418      O2061   2.491   1_445  S
Zr418      O2069   2.464   1_455  S
Zr418       O420   2.356       .  S
Zr418       O430   2.342   1_554  S
Zr418      O2903   2.315   1_445  S
Zr418      O1260   2.348   1_545  S
O419      Zr2902   2.315       .  S
O420      Zr1242   2.316       .  S
C424       O2057   1.308       .  A
C426       C1976   1.481       .  S
C426       O2065   1.278       .  A
C428       O1233   1.307       .  A
H429        O430   0.962       .  S
O430      Zr2899   2.368   1_445  S
H431        O432   0.965       .  S
O432      Zr2073   2.345   1_455  S
O432      Zr1246   2.348       .  S
O433       Zr469   2.497       .  S
O433        C444   1.308       .  A
O434       Zr468   2.468       .  S
O434        C445   1.296       .  A
O435       Zr441   2.459       .  S
O435        C446   1.293       .  A
O436       Zr441   2.504       .  S
O436        C447   1.309       .  A
O437       Zr471   2.400       .  S
O437        C447   1.284       .  A
O438       Zr470   2.461       .  S
O438        C446   1.300       .  A
O439       Zr441   2.466       .  S
O439        C445   1.301       .  A
O440       Zr441   2.393       .  S
O440        C444   1.283       .  A
Zr441       O442   2.317       .  S
Zr441       O443   2.357       .  S
Zr441       O451   2.345       .  S
Zr441       O449   2.345       .  S
O442       Zr468   2.336       .  S
O442       Zr471   2.355       .  S
O443       Zr469   2.313       .  S
O443       Zr470   2.330       .  S
H448        O449   0.962       .  S
O449       Zr468   2.367       .  S
O449       Zr470   2.315       .  S
H450        O451   0.965       .  S
O451       Zr469   2.350       .  S
O451       Zr471   2.348       .  S
O452       Zr468   2.522       .  S
O452        C475   1.313       .  A
O453       Zr469   2.457       .  S
O453        C476   1.293       .  A
O454       Zr470   2.499       .  S
O454        C477   1.309       .  A
O455       Zr471   2.461       .  S
O455        C478   1.294       .  A
O456       Zr471   2.499       .  S
O456        C479   1.309       .  A
O457       Zr470   2.468       .  S
O457        C480   1.295       .  A
O458       Zr472   2.516       .  S
O458        C481   1.312       .  A
O459       Zr472   2.460       .  S
O459        C482   1.294       .  A
O460       Zr470   2.382       .  S
O460        C481   1.280       .  A
O461       Zr471   2.474       .  S
O461        C482   1.303       .  A
O462       Zr468   2.385       .  S
O462        C477   1.281       .  A
O463       Zr469   2.468       .  S
O463        C480   1.301       .  A
O464       Zr469   2.389       .  S
O464        C479   1.281       .  A
O465       Zr468   2.462       .  S
O465        C478   1.300       .  A
O466       Zr472   2.386       .  S
O466        C475   1.282       .  A
O467       Zr472   2.464       .  S
O467        C476   1.301       .  A
Zr468       O474   2.344       .  S
Zr468       O486   2.311       .  S
Zr469       O473   2.356       .  S
Zr469       O484   2.344       .  S
Zr470       O474   2.345       .  S
Zr470       O484   2.362       .  S
Zr471       O473   2.317       .  S
Zr471       O486   2.344       .  S
Zr472       O473   2.334       .  S
Zr472       O474   2.339       .  S
Zr472       O486   2.363       .  S
Zr472       O484   2.311       .  S
C480       C1846   1.504       .  S
C482        C914   1.502   1_545  S
H483        O484   0.962       .  S
H485        O486   0.962       .  S
O487       Zr523   2.460       .  S
O487        C498   1.294       .  A
O488       Zr522   2.514       .  S
O488        C499   1.312       .  A
O489       Zr495   2.469       .  S
O489        C500   1.296       .  A
O490       Zr495   2.515       .  S
O490        C501   1.312       .  A
O491       Zr525   2.376       .  S
O491        C501   1.279       .  A
O492       Zr524   2.463       .  S
O492        C500   1.300       .  A
O493       Zr495   2.383       .  S
O493        C499   1.281       .  A
O494       Zr495   2.466       .  S
O494        C498   1.302       .  A
Zr495       O496   2.339       .  S
Zr495       O497   2.332       .  S
Zr495       O505   2.313       .  S
Zr495       O503   2.365       .  S
O496       Zr522   2.339       .  S
O496       Zr525   2.339       .  S
O497       Zr523   2.356       .  S
O497       Zr524   2.312       .  S
H502        O503   0.962       .  S
O503       Zr522   2.315       .  S
O503       Zr524   2.344       .  S
H504        O505   0.962       .  S
O505       Zr523   2.345       .  S
O505       Zr525   2.363       .  S
O506       Zr522   2.469       .  S
O506        C529   1.296       .  A
O507       Zr523   2.502       .  S
O507        C530   1.309       .  A
O508       Zr524   2.456       .  S
O508        C531   1.292       .  A
O509       Zr525   2.500       .  S
O509        C532   1.309       .  A
O510       Zr525   2.464       .  S
O510        C533   1.294       .  A
O511       Zr524   2.495       .  S
O511        C534   1.308       .  A
O512       Zr526   2.503       .  S
O512        C535   1.310       .  A
O513       Zr526   2.461       .  S
O513        C536   1.294       .  A
O514       Zr524   2.387       .  S
O514        C535   1.281       .  A
O515       Zr525   2.455       .  S
O515        C536   1.299       .  A
O516       Zr522   2.462       .  S
O516        C531   1.301       .  A
O517       Zr523   2.390       .  S
O517        C534   1.282       .  A
O518       Zr523   2.467       .  S
O518        C533   1.301       .  A
O519       Zr522   2.383       .  S
O519        C532   1.281       .  A
O520       Zr526   2.468       .  S
O520        C529   1.301       .  A
O521       Zr526   2.389       .  S
O521        C530   1.282       .  A
Zr522       O528   2.331       .  S
Zr522       O540   2.365       .  S
Zr523       O527   2.315       .  S
Zr523       O538   2.347       .  S
Zr524       O528   2.354       .  S
Zr524       O538   2.346       .  S
Zr525       O527   2.331       .  S
Zr525       O540   2.313       .  S
Zr526       O527   2.357       .  S
Zr526       O528   2.313       .  S
Zr526       O540   2.342       .  S
Zr526       O538   2.346       .  S
H537        O538   0.965       .  S
H539        O540   0.962       .  S
O541       Zr577   2.503       .  S
O541        C552   1.309       .  A
O542       Zr576   2.468       .  S
O542        C553   1.295       .  A
O543       Zr549   2.465       .  S
O543        C554   1.294       .  A
O544       Zr549   2.500       .  S
O544        C555   1.309       .  A
O545       Zr579   2.392       .  S
O545        C555   1.282       .  A
O546       Zr578   2.463       .  S
O546        C554   1.300       .  A
O547       Zr549   2.474       .  S
O547        C553   1.303       .  A
O548       Zr549   2.395       .  S
O548        C552   1.283       .  A
Zr549       O550   2.316       .  S
Zr549       O551   2.349       .  S
Zr549       O559   2.350       .  S
Zr549       O557   2.344       .  S
O550       Zr576   2.332       .  S
O550       Zr579   2.357       .  S
O551       Zr577   2.309       .  S
O551       Zr578   2.330       .  S
H556        O557   0.962       .  S
O557       Zr576   2.365       .  S
O557       Zr578   2.312       .  S
H558        O559   0.965       .  S
O559       Zr577   2.345       .  S
O559       Zr579   2.349       .  S
O560       Zr576   2.509       .  S
O560        C583   1.311       .  A
O561       Zr577   2.452       .  S
O561        C584   1.292       .  A
O562       Zr578   2.512       .  S
O562        C585   1.311       .  A
O563       Zr579   2.454       .  S
O563        C586   1.292       .  A
O564       Zr579   2.499       .  S
O564        C587   1.308       .  A
O565       Zr578   2.450       .  S
O565        C588   1.292       .  A
O566       Zr580   2.506       .  S
O566        C589   1.310       .  A
O567       Zr580   2.461       .  S
O567        C590   1.294       .  A
O568       Zr578   2.387       .  S
O568        C589   1.281       .  A
O569       Zr579   2.472       .  S
O569        C590   1.303       .  A
O570       Zr576   2.386       .  S
O570        C585   1.281       .  A
O571       Zr577   2.469       .  S
O571        C588   1.302       .  A
O572       Zr577   2.402       .  S
O572        C587   1.284       .  A
O573       Zr576   2.461       .  S
O573        C586   1.300       .  A
O574       Zr580   2.380       .  S
O574        C583   1.280       .  A
O575       Zr580   2.462       .  S
O575        C584   1.300       .  A
Zr576       O582   2.339       .  S
Zr576       O594   2.318       .  S
Zr577       O581   2.355       .  S
Zr577       O592   2.348       .  S
Zr578       O582   2.338       .  S
Zr578       O592   2.366       .  S
Zr579       O581   2.313       .  S
Zr579       O594   2.345       .  S
Zr580       O581   2.332       .  S
Zr580       O582   2.341       .  S
Zr580       O594   2.365       .  S
Zr580       O592   2.309       .  S
H591        O592   0.962       .  S
H593        O594   0.963       .  S
O595      Zr1459   2.515       .  S
O595       C2262   1.312       .  A
O596      Zr1458   2.458   1_545  S
O596        C607   1.293       .  A
O597       Zr603   2.512   1_565  S
O597       C1436   1.312       .  A
O598       Zr603   2.459       .  S
O598        C609   1.294       .  A
O599       Zr633   2.463       .  S
O599        C609   1.301       .  A
O600       Zr632   2.375       .  S
O600        C608   1.279       .  A
O601       Zr603   2.468       .  S
O601        C607   1.302       .  A
O602       Zr603   2.386       .  S
O602        C606   1.281       .  A
Zr603       O604   2.332       .  S
Zr603       O613   2.365       .  S
Zr603      O1433   2.338   1_545  S
Zr603      O1439   2.310   1_545  S
O604       Zr633   2.316       .  S
O604      Zr1458   2.354   1_545  S
O605       Zr632   2.338       .  S
O605      Zr1431   2.338       .  S
O605      Zr2287   2.339   1_455  S
C606       O2251   1.312       .  A
C608       O1425   1.312       .  A
H610        O611   0.962       .  S
O611       Zr630   2.345       .  S
O611       Zr632   2.365       .  S
O611      Zr1431   2.310       .  S
H612        O613   0.962       .  S
O613       Zr633   2.348       .  S
O613      Zr3115   2.313   1_455  S
O614       Zr630   2.500       .  S
O614        C637   1.309   1_455  A
O615       Zr631   2.467       .  S
O615        C638   1.295       .  A
O616       Zr632   2.467       .  S
O616        C639   1.295       .  A
O617       Zr633   2.501       .  S
O617        C640   1.309       .  A
O618      Zr2289   2.455       .  S
O618        C641   1.293       .  A
O619      Zr2288   2.510       .  S
O619        C642   1.310       .  A
O620       Zr634   2.458       .  S
O620        C643   1.293       .  A
O621       Zr634   2.498       .  S
O621        C644   1.308       .  A
O622      Zr2288   2.455       .  S
O622        C643   1.299       .  A
O623      Zr2289   2.401       .  S
O623       C1472   1.284       .  A
O624       Zr630   2.471       .  S
O624        C639   1.302       .  A
O625       Zr631   2.385       .  S
O625        C642   1.281       .  A
O626      Zr1459   2.465       .  S
O626        C641   1.301       .  A
O627      Zr1458   2.397   1_545  S
O627        C640   1.283       .  A
O628       Zr634   2.389       .  S
O628       C2293   1.282       .  A
O629       Zr634   2.466       .  S
O629        C638   1.301       .  A
Zr630      O1424   2.458       .  S
Zr630      O1455   2.397       .  S
Zr630       O636   2.316       .  S
Zr630       O648   2.349       .  S
Zr630      O1432   2.354       .  S
Zr631      O1423   2.515       .  S
Zr631      O1454   2.465       .  S
Zr631       O635   2.334       .  S
Zr631       O646   2.366       .  S
Zr631      O2261   2.339       .  S
Zr631      O3097   2.313       .  S
Zr632      O2275   2.510   1_455  S
Zr632      O2278   2.455   1_455  S
Zr632       O636   2.332       .  S
Zr632      O2302   2.314   1_455  S
Zr633      O2274   2.455   1_455  S
Zr633      O2279   2.401   1_455  S
Zr633      O3119   2.355   1_455  S
Zr633      O1476   2.344   1_545  S
Zr634       O635   2.313       .  S
Zr634       O646   2.346       .  S
Zr634      O2292   2.356       .  S
Zr634      O2304   2.349       .  S
O635      Zr3117   2.355       .  S
O636      Zr2290   2.356   1_455  S
C637       C1733   1.480       .  S
C637       O2284   1.282       .  A
C644       C1058   1.488       .  S
C644       O1451   1.284       .  A
H645        O646   0.962       .  S
O646      Zr2288   2.314       .  S
H647        O648   0.965       .  S
O648      Zr1461   2.344       .  S
O648      Zr2290   2.349   1_455  S
C649        C650   1.393       .  A
C649        C654   1.385       .  A
C649        H656   1.084       .  S
C650        C651   1.412       .  A
C651        C652   1.386       .  A
C651       Br658   1.924       .  S
C652        C653   1.393       .  A
C652        H657   1.084       .  S
C653        C654   1.412       .  A
C654       Br655   1.921       .  S
C659        C660   1.407       .  A
C659        C664   1.387   1_455  A
C659        H666   1.084       .  S
C660        C661   1.401   1_554  A
C661        C662   1.388       .  A
C661       Br668   1.920       .  S
C662        C663   1.408   1_456  A
C662       H2323   1.084       .  S
C663       C1947   1.460   1_554  S
C663        C664   1.402       .  A
C664       Br665   1.921       .  S
H667       C2318   1.084       .  S
C669        C670   1.405       .  A
C669        C674   1.385       .  A
C669        H676   1.084       .  S
C670        C671   1.400       .  A
C671        C672   1.386       .  A
C671       Br678   1.920       .  S
C672        C673   1.405       .  A
C672        H677   1.084       .  S
C673       C1938   1.450       .  S
C673        C674   1.399       .  A
C674       Br675   1.920       .  S
C679        C684   1.385       .  A
C679       C1508   1.393       .  A
C679        H686   1.084       .  S
C680        C681   1.413   1_545  A
C680       C1507   1.393       .  A
C681       C1510   1.387       .  A
C681       Br688   1.924       .  S
C682        C683   1.394       .  A
C682       C1509   1.387       .  A
C682        H687   1.084       .  S
C683        C684   1.414       .  A
C684       Br685   1.922       .  S
C689        C690   1.393       .  A
C689        C694   1.385       .  A
C689        H696   1.084       .  S
C690        C691   1.412       .  A
C691        C692   1.385       .  A
C691       Br698   1.920       .  S
C692        C693   1.393       .  A
C692        H697   1.084       .  S
C693       C1076   1.452   1_545  S
C693        C694   1.412       .  A
C694       Br695   1.921       .  S
C699        C700   1.401       .  A
C699        C704   1.390       .  A
C699        H706   1.084       .  S
C700        C701   1.406       .  A
C701        C702   1.389       .  A
C701       Br708   1.921       .  S
C702        C703   1.401       .  A
C702        H707   1.084       .  S
C703        C704   1.406       .  A
C704       Br705   1.921       .  S
C709        C710   1.394       .  A
C709        C714   1.386       .  A
C709        H716   1.084       .  S
C710       C1038   1.453   1_545  S
C710        C711   1.412       .  A
C711        C712   1.387       .  A
C711       Br718   1.924       .  S
C712        C713   1.395       .  A
C712        H717   1.084       .  S
C713        C714   1.412       .  A
C714       Br715   1.924       .  S
C719        C720   1.401       .  A
C719        C724   1.387       .  A
C719        H726   1.084       .  S
C720        C721   1.406       .  A
C721        C722   1.390       .  A
C721       Br728   1.921       .  S
C722        C723   1.401       .  A
C722        H727   1.084       .  S
C723        C724   1.405       .  A
C724       Br725   1.921       .  S
C729        C734   1.389       .  A
C729       C1558   1.401       .  A
C729        H736   1.084       .  S
C730        C731   1.405       .  A
C730       C1557   1.401   1_545  A
C731        C732   1.390       .  A
C731       Br738   1.920       .  S
C732       C1561   1.401   1_545  A
C732        H737   1.084       .  S
C733        C734   1.405       .  A
C733       C1560   1.401       .  A
C734       Br735   1.921       .  S
C739        C740   1.397       .  A
C739        C744   1.389       .  A
C739        H746   1.084       .  S
C740        C741   1.407       .  A
C741        C742   1.388       .  A
C741       Br748   1.919       .  S
C742        C743   1.396       .  A
C742        H747   1.084       .  S
C743        C744   1.407       .  A
C744       Br745   1.919       .  S
C749        C750   1.397       .  A
C749        C754   1.389       .  A
C749        H756   1.084       .  S
C750        C751   1.407       .  A
C751        C752   1.389       .  A
C751       Br758   1.919       .  S
C752        C753   1.397       .  A
C752        H757   1.084       .  S
C753        C754   1.407       .  A
C754      Br2411   1.919       .  S
Br755      C2410   1.919   1_455  S
C759        C760   1.407       .  A
C759        C764   1.387       .  A
C759        H766   1.084       .  S
C760        C761   1.400       .  A
C761        C762   1.386       .  A
C761       Br768   1.920       .  S
C762        C763   1.407       .  A
C762        H767   1.084       .  S
C763        C764   1.401       .  A
C764       Br765   1.920       .  S
C769        C770   1.411       .  A
C769        C774   1.392       .  A
C769        H776   1.079       .  S
C770        C771   1.428       .  A
C771        C772   1.385       .  A
C771       Br778   1.925       .  S
C772        C773   1.393       .  A
C772        H777   1.083       .  S
C773        C774   1.402       .  A
C774       Br775   1.914       .  S
C779        C780   1.394       .  A
C779        C784   1.388       .  A
C779        H786   1.084       .  S
C780        C781   1.412       .  A
C781        C782   1.384       .  A
C781       Br788   1.917       .  S
C782        C783   1.392       .  A
C782        H787   1.084       .  S
C783        C784   1.413       .  A
C784       Br785   1.923       .  S
C789        C790   1.394       .  A
C789        C794   1.387       .  A
C789        H796   1.084       .  S
C790        C791   1.409   1_554  A
C791        C792   1.386   1_556  A
C791       Br798   1.919       .  S
C792        C793   1.393       .  A
C792        H797   1.084   1_554  S
C793        C794   1.409       .  A
C794       Br795   1.922       .  S
C799        C800   1.395       .  A
C799       C2460   1.389       .  A
C799        H806   1.084       .  S
C800       C2457   1.406       .  A
C801        C802   1.384       .  A
C801       C2456   1.406   1_455  A
C801       Br808   1.913       .  S
C802        C803   1.393       .  A
C802        H807   1.084       .  S
C803        C804   1.408       .  A
C804       C2455   1.389   1_455  A
C804      Br2461   1.920   1_455  S
Br805      C2460   1.920       .  S
C809        C810   1.395       .  A
C809        C814   1.388       .  A
C809        H816   1.084       .  S
C810        C811   1.415       .  A
C811        C812   1.384       .  A
C811       Br818   1.923       .  S
C812        C813   1.393       .  A
C812        H817   1.084       .  S
C813        C814   1.414       .  A
C814       Br815   1.924       .  S
C819        C820   1.401       .  A
C819        C824   1.389       .  A
C819        H826   1.084       .  S
C820       C1668   1.453       .  S
C820        C821   1.404       .  A
C821        C822   1.389       .  A
C821       Br828   1.920       .  S
C822        C823   1.402       .  A
C822        H827   1.084       .  S
C823        C824   1.404       .  A
C824       Br825   1.921       .  S
C829       C1326   1.504   1_545  S
C830        C831   1.390       .  A
C831       C1651   1.454       .  S
C831        C832   1.382       .  A
C832        C833   1.390       .  A
C832        H836   1.085       .  S
C833       C1164   1.489       .  S
C833        C834   1.429       .  A
C834        H837   1.082       .  S
C838       C1357   1.505       .  S
C838        C839   1.408       .  A
C838        C843   1.428       .  A
C839        C840   1.392       .  A
C839        H844   1.084       .  S
C840       C3304   1.453   1_455  S
C840        C841   1.384       .  A
C841        C842   1.387       .  A
C841       H2501   1.085   1_455  S
C842       C1434   1.487       .  S
C842        C843   1.429       .  A
C843        H846   1.083       .  S
H845       C2497   1.085       .  S
C847        C848   1.407       .  A
C847        C852   1.428       .  A
C848        C849   1.391       .  A
C848        H853   1.084       .  S
C849       C1641   1.456       .  S
C849        C850   1.376       .  A
C850        C851   1.387       .  A
C850        H854   1.085       .  S
C851       C1362   1.481       .  S
C851        C852   1.427       .  A
C852        H855   1.083       .  S
C856       C1202   1.503       .  S
C856        C857   1.410       .  A
C856        C861   1.427       .  A
C857        C858   1.394       .  A
C857        H862   1.083       .  S
C858       C1638   1.457       .  S
C858        C859   1.378       .  A
C859        C860   1.383       .  A
C859        H863   1.086       .  S
C860       C1218   1.479       .  S
C860        C861   1.427       .  A
C861        H864   1.083       .  S
C865       C1471   1.499       .  S
C865        C866   1.407       .  A
C865        C870   1.427       .  A
C866        C867   1.387       .  A
C866        H871   1.084       .  S
C867       C1628   1.446       .  S
C867        C868   1.378       .  A
C868        C869   1.388       .  A
C868        H872   1.086       .  S
C869       C1272   1.482       .  S
C869        C870   1.427       .  A
C870        H873   1.082       .  S
C874       C1437   1.497       .  S
C874        C875   1.426       .  A
C874        C879   1.407       .  A
C875        C876   1.428       .  A
C875        H880   1.083       .  S
C876       C1360   1.482       .  S
C876        C877   1.387       .  A
C877        C878   1.378       .  A
C877        H881   1.085       .  S
C878       C1631   1.444       .  S
C878        C879   1.387       .  A
C879        H882   1.084       .  S
C883       C1221   1.503   1_556  S
C883        C884   1.409   1_556  A
C883        C888   1.428       .  A
C884        C885   1.390   1_554  A
C884        H889   1.084       .  S
C885       C1618   1.449   1_556  S
C885        C886   1.379       .  A
C886        C887   1.385       .  A
C886        H890   1.085       .  S
C887       C1195   1.484       .  S
C887        C888   1.430       .  A
C888        H891   1.083       .  S
C892       C1255   1.503       .  S
C892        C893   1.407       .  A
C892        C897   1.431       .  A
C893        C894   1.388       .  A
C893        H898   1.084       .  S
C894       C1621   1.447       .  S
C894        C895   1.377       .  A
C895        C896   1.387       .  A
C895        H899   1.086       .  S
C896       C1380   1.486       .  S
C896        C897   1.430       .  A
C897        H900   1.082       .  S
C901       C1274   1.501       .  S
C901        C902   1.409       .  A
C901        C906   1.428       .  A
C902       C2559   1.391       .  A
C902        H907   1.084       .  S
C903       C1608   1.454       .  S
C903       C2558   1.391   1_455  A
C903        C904   1.377       .  A
C904       C2561   1.386   1_455  A
C904        H908   1.086       .  S
C905       C3121   1.480       .  S
C905       C2560   1.386       .  A
C905        C906   1.426       .  A
C906        H909   1.082       .  S
C910       C1411   1.484       .  S
C910        C911   1.385       .  A
C910        C915   1.430       .  A
C911        C912   1.377       .  A
C911        H916   1.085       .  S
C912       C1611   1.452       .  S
C912        C913   1.391       .  A
C913        C914   1.407       .  A
C913        H917   1.084       .  S
C914        C915   1.429       .  A
C915        H918   1.082       .  S
C919       C1382   1.500       .  S
C919        C920   1.415       .  A
C919        C924   1.423       .  A
C920        C921   1.410       .  A
C920        H925   1.079       .  S
C921       C1598   1.502       .  S
C921        C922   1.384       .  A
C922        C923   1.383       .  A
C922        H926   1.072       .  S
C923       C1249   1.482       .  S
C923        C924   1.420       .  A
C924        H927   1.083       .  S
C928       C1418   1.503   1_545  S
C929        C930   1.397       .  A
C930       C1601   1.467       .  S
C930        C931   1.392       .  A
C931        C932   1.386       .  A
C931        H935   1.083       .  S
C932       C1303   1.490       .  S
C932        C933   1.428       .  A
C933        H936   1.083       .  S
C937       C2852   1.500   1_455  S
C937        C938   1.428       .  A
C937        C942   1.407       .  A
C938        C939   1.426       .  A
C938        H943   1.082       .  S
C939       C1358   1.483       .  S
C939        C940   1.386       .  A
C940        C941   1.380       .  A
C940        H944   1.086       .  S
C941       C1588   1.456       .  S
C941        C942   1.391       .  A
C942        H945   1.083       .  S
C946       C1165   1.502       .  S
C946        C947   1.408       .  A
C946        C951   1.427       .  A
C947        H952   1.083       .  S
C948       C1591   1.457       .  S
C948        C949   1.382       .  A
C949        H953   1.085       .  S
C950        C951   1.428       .  A
C951        H954   1.083       .  S
C955       C1328   1.502       .  S
C955        C956   1.408       .  A
C955        C960   1.427       .  A
C956        C957   1.391       .  A
C956        H961   1.084       .  S
C957       C1578   1.450       .  S
C957        C958   1.381       .  A
C958        C959   1.388       .  A
C958        H962   1.085       .  S
C959       C1470   1.485       .  S
C959        C960   1.429       .  A
C960        H963   1.083       .  S
C964       C1364   1.500       .  S
C964        C965   1.408   1_455  A
C964       C2625   1.427   1_455  A
C965       C2622   1.389       .  A
C965        H970   1.084   1_655  S
C966       C1581   1.451       .  S
C966       C2621   1.389       .  A
C966        C967   1.379       .  A
C967        C968   1.390       .  A
C967        H971   1.085       .  S
C968       C1199   1.484       .  S
C968        C969   1.427       .  A
C969       C2620   1.427       .  A
C969       H2628   1.082       .  S
H972       C2625   1.082   1_455  S
C973       C1435   1.504       .  S
C973        C974   1.431       .  A
C973        C978   1.406       .  A
C974        C975   1.430       .  A
C974        H979   1.082       .  S
C975       C1275   1.489       .  S
C975        C976   1.389       .  A
C976        C977   1.380       .  A
C976        H980   1.085       .  S
C977       C1568   1.450       .  S
C977        C978   1.389       .  A
C978        H981   1.084       .  S
C982       C1466   1.503       .  S
C982        C983   1.428       .  A
C982        C987   1.407       .  A
C983        C984   1.430       .  A
C983        H988   1.083       .  S
C984       C1327   1.486       .  S
C984        C985   1.387       .  A
C985        C986   1.381       .  A
C985        H989   1.085       .  S
C986       C1571   1.449       .  S
C986        C987   1.390       .  A
C987        H990   1.084       .  S
C991       C1251   1.506   1_556  S
C991        C992   1.409   1_556  A
C991        C996   1.428       .  A
C992        C993   1.394       .  A
C992        H997   1.084       .  S
C993       C1558   1.455       .  S
C993        C994   1.384   1_554  A
C994        C995   1.387       .  A
C994        H998   1.085       .  S
C995       C1197   1.487       .  S
C995        C996   1.429       .  A
C996        H999   1.083       .  S
C1000      C1253   1.502       .  S
C1000      C1001   1.429       .  A
C1000      C1005   1.408       .  A
C1001      C1002   1.428       .  A
C1001      H1006   1.082       .  S
C1002      C1415   1.488       .  S
C1002      C1003   1.389       .  A
C1003      C1004   1.382       .  A
C1003      H1007   1.085       .  S
C1004      C1561   1.455       .  S
C1004      C1005   1.391       .  A
C1005      H1008   1.084       .  S
C1009      C1306   1.503       .  S
C1009      C1010   1.407       .  A
C1009      C1014   1.429       .  A
C1010      C1011   1.391       .  A
C1010      H1015   1.084       .  S
C1011      C1548   1.455       .  S
C1011      C1012   1.382       .  A
C1012      C1013   1.388       .  A
C1012      H1016   1.085       .  S
C1013      C1468   1.486       .  S
C1013      C1014   1.428       .  A
C1014      H1017   1.082       .  S
C1018      C2964   1.504   1_455  S
C1018      C1019   1.429       .  A
C1018      C1023   1.408       .  A
C1019      C1020   1.430       .  A
C1019      H1024   1.083       .  S
C1020      C1413   1.487       .  S
C1020      C1021   1.386       .  A
C1021      C1022   1.382       .  A
C1021      H1025   1.085       .  S
C1022      C1551   1.453       .  S
C1022      C1023   1.391       .  A
C1023      H1026   1.084       .  S
C1027      C1309   1.487       .  S
C1027      C1028   1.385       .  A
C1027      C1032   1.431       .  A
C1028      C1029   1.379       .  A
C1028      H1033   1.085       .  S
C1029      C1541   1.453       .  S
C1029      C1030   1.391       .  A
C1030      C2687   1.408       .  A
C1030      H2690   1.084       .  S
C1031      C1381   1.506       .  S
C1031      C2686   1.408   1_455  A
C1031      C2688   1.430   1_455  A
C1032      C2687   1.430       .  A
C1032      H2691   1.083       .  S
H1034      C2686   1.084   1_455  S
H1035      C2688   1.083       .  S
C1036      C1412   1.498       .  S
C1036      C1037   1.408       .  A
C1036      C1041   1.428       .  A
C1037      C1038   1.390       .  A
C1037      H1042   1.084       .  S
C1038      C1039   1.377       .  A
C1039      C1040   1.387       .  A
C1040      C1256   1.481       .  S
C1040      C1041   1.425       .  A
C1041      H1044   1.083       .  S
C1045      C1273   1.503       .  S
C1045      C1046   1.409       .  A
C1045      C1050   1.427       .  A
C1046      C1047   1.393       .  A
C1046      H1051   1.083       .  S
C1047      C1528   1.455       .  S
C1047      C1048   1.383       .  A
C1048      C1049   1.387       .  A
C1048      H1052   1.085       .  S
C1049      C1417   1.485       .  S
C1049      C1050   1.427       .  A
C1050      H1053   1.083       .  S
C1054      C1304   1.502       .  S
C1054      C1055   1.407       .  A
C1054      C1059   1.429       .  A
C1055      H1060   1.084       .  S
C1056      C1531   1.456       .  S
C1056      C1057   1.382       .  A
C1057      H1061   1.085       .  S
C1058      C1059   1.428       .  A
C1059      H1062   1.082       .  S
C1063      C1359   1.500       .  S
C1063      C1064   1.429       .  A
C1063      C1068   1.407       .  A
C1064      C1065   1.427       .  A
C1064      H1069   1.082       .  S
C1065      C1167   1.481       .  S
C1065      C1066   1.385       .  A
C1066      C1067   1.375       .  A
C1066      H1070   1.086       .  S
C1067      C1518   1.451       .  S
C1067      C1068   1.390       .  A
C1068      H1071   1.084       .  S
C1072      C1361   1.502       .  S
C1072      C1073   1.428       .  A
C1072      C1077   1.408       .  A
C1073      C1074   1.430       .  A
C1073      H1078   1.083       .  S
C1074      C1436   1.482       .  S
C1074      C1075   1.383       .  A
C1075      C1076   1.377       .  A
C1076      C1077   1.391       .  A
C1077      H1080   1.084       .  S
C1081      C1469   1.501       .  S
C1081      C1082   1.407       .  A
C1081      C1086   1.429       .  A
C1082      C1083   1.391       .  A
C1082      H1087   1.084       .  S
C1083      C1508   1.453       .  S
C1083      C1084   1.376       .  A
C1084      C1085   1.386       .  A
C1084      H1088   1.086       .  S
C1085      C1307   1.482       .  S
C1085      C1086   1.427       .  A
C1086      H1089   1.082       .  S
C1090      C1467   1.504       .  S
C1090      C1091   1.429       .  A
C1090      C1095   1.409       .  A
C1091      C1092   1.430       .  A
C1091      H1096   1.083       .  S
C1092      C1329   1.484       .  S
C1092      C1093   1.384       .  A
C1093      C1094   1.378       .  A
C1093      H1097   1.085       .  S
C1094      C1511   1.454       .  S
C1094      C1095   1.392       .  A
C1095      H1098   1.084       .  S
C1099      C1416   1.495       .  S
C1099      C1100   1.406       .  A
C1099      C1104   1.427       .  A
C1100      C1101   1.390       .  A
C1100      H1105   1.083       .  S
C1101      C1498   1.451       .  S
C1101      C1102   1.380       .  A
C1102      C1103   1.385       .  A
C1102      H1106   1.085       .  S
C1103      C1305   1.480       .  S
C1103      C1104   1.426       .  A
C1104      H1107   1.083       .  S
C1108      C1414   1.500       .  S
C1108      C1109   1.407       .  A
C1108      C1113   1.429       .  A
C1109      C1110   1.389       .  A
C1109      H1114   1.084       .  S
C1110      C3157   1.450   1_455  S
C1110      C1111   1.378       .  A
C1111      C1112   1.385       .  A
C1111      H1115   1.086   1_455  S
C1112      C1252   1.482       .  S
C1112      C1113   1.427       .  A
C1113      H1116   1.082       .  S
C1117      C1250   1.502   1_556  S
C1117      C1118   1.409   1_556  A
C1117      C1122   1.426       .  A
C1118      C1119   1.393   1_554  A
C1118      H1123   1.083       .  S
C1119      C3147   1.460   1_556  S
C1119      C1120   1.382       .  A
C1120      C1121   1.386       .  A
C1120      H1124   1.085       .  S
C1121      C1201   1.484       .  S
C1121      C1122   1.428       .  A
C1122      H1125   1.083       .  S
C1126      C1219   1.500       .  S
C1126      C1127   1.427       .  A
C1126      C1131   1.409       .  A
C1127      C1128   1.425       .  A
C1127      H1132   1.082       .  S
C1128      C1383   1.481       .  S
C1128      C1129   1.387       .  A
C1129      C1130   1.381       .  A
C1129      H1133   1.086       .  S
C1130      C1488   1.459       .  S
C1130      C1131   1.393       .  A
C1131      H1134   1.083       .  S
C1135      C1198   1.501       .  S
C1135      C1136   1.407       .  A
C1135      C1140   1.430       .  A
C1136      C1137   1.390       .  A
C1136      H1141   1.084       .  S
C1137      C1481   1.450       .  S
C1137      C1138   1.376       .  A
C1138      C1139   1.385       .  A
C1138      H1142   1.086       .  S
C1139      C1363   1.482       .  S
C1139      C1140   1.428       .  A
C1140      H1143   1.082       .  S
C1144      C1200   1.502       .  S
C1144      C1145   1.408       .  A
C1144      C1149   1.428       .  A
C1145      C2802   1.391       .  A
C1145      H1150   1.084       .  S
C1146      C1478   1.450       .  S
C1146      C2801   1.391   1_455  A
C1146      C1147   1.377       .  A
C1147      C2804   1.383   1_455  A
C1147      H1151   1.085       .  S
C1148      C2910   1.481       .  S
C1148      C2803   1.383       .  A
C1148      C1149   1.430       .  A
C1149      H1152   1.083       .  S
O1153     Zr1189   2.502       .  S
O1153      C1164   1.309       .  A
O1154     Zr1188   2.463       .  S
O1154      C1165   1.295       .  A
O1155     Zr1161   2.455       .  S
O1155      C1166   1.293       .  A
O1156     Zr1161   2.498       .  S
O1156      C1167   1.309       .  A
O1157     Zr1191   2.388       .  S
O1157      C1167   1.281       .  A
O1158     Zr1190   2.464       .  S
O1158      C1166   1.301       .  A
O1159     Zr1161   2.468       .  S
O1159      C1165   1.302       .  A
O1160     Zr1161   2.402       .  S
O1160      C1164   1.284       .  A
Zr1161     O1162   2.314       .  S
Zr1161     O1163   2.353       .  S
Zr1161     O1171   2.346       .  S
Zr1161     O1169   2.348       .  S
O1162     Zr1188   2.332       .  S
O1162     Zr1191   2.354       .  S
O1163     Zr1189   2.314       .  S
O1163     Zr1190   2.333       .  S
H1168      O1169   0.962       .  S
O1169     Zr1188   2.365       .  S
O1169     Zr1190   2.313       .  S
H1170      O1171   0.965       .  S
O1171     Zr1189   2.346       .  S
O1171     Zr1191   2.349       .  S
O1172     Zr1188   2.512       .  S
O1172      C1195   1.311       .  A
O1173     Zr1189   2.455       .  S
O1173      C1196   1.293       .  A
O1174     Zr1190   2.517       .  S
O1174      C1197   1.312       .  A
O1175     Zr1191   2.456       .  S
O1175      C1198   1.292       .  A
O1176     Zr1191   2.494       .  S
O1176      C1199   1.307       .  A
O1177     Zr1190   2.466       .  S
O1177      C1200   1.295       .  A
O1178     Zr1192   2.511       .  S
O1178      C1201   1.311       .  A
O1179     Zr1192   2.470       .  S
O1179      C1202   1.296       .  A
O1180     Zr1190   2.380       .  S
O1180      C1201   1.280       .  A
O1181     Zr1191   2.464       .  S
O1181      C1202   1.300       .  A
O1182     Zr1188   2.384       .  S
O1182      C1197   1.281       .  A
O1183     Zr1189   2.469       .  S
O1183      C1200   1.302       .  A
O1184     Zr1189   2.398       .  S
O1184      C1199   1.283       .  A
O1185     Zr1188   2.463       .  S
O1185      C1198   1.301       .  A
O1186     Zr1192   2.379       .  S
O1186      C1195   1.280       .  A
O1187     Zr1192   2.462       .  S
O1187      C1196   1.300       .  A
Zr1188     O1194   2.338       .  S
Zr1188     O1206   2.314       .  S
Zr1189     O1193   2.357       .  S
Zr1189     O1204   2.348       .  S
Zr1190     O1194   2.339       .  S
Zr1190     O1204   2.367       .  S
Zr1191     O1193   2.314       .  S
Zr1191     O1206   2.343       .  S
Zr1192     O1193   2.332       .  S
Zr1192     O1194   2.339       .  S
Zr1192     O1206   2.364       .  S
Zr1192     O1204   2.313       .  S
C1196      C2593   1.500       .  S
H1203      O1204   0.962       .  S
H1205      O1206   0.962       .  S
O1207     Zr1243   2.519       .  S
O1207      C1218   1.313       .  A
O1208     Zr1242   2.459   1_565  S
O1208      C1219   1.293       .  A
O1209     Zr1215   2.516       .  S
O1209      C1220   1.312   1_565  A
O1210     Zr2871   2.472       .  S
O1210      C1221   1.296   1_556  A
O1211     Zr1245   2.463       .  S
O1211      C1221   1.300       .  A
O1212     Zr1244   2.375       .  S
O1213     Zr1215   2.456   1_554  S
O1213      C1219   1.299       .  A
O1214     Zr2871   2.366       .  S
O1214      C1218   1.277       .  A
Zr1215     O2866   2.472   1_455  S
Zr1215     O2870   2.366       .  S
Zr1215     O1216   2.329   1_556  S
Zr1215     O1217   2.337       .  S
Zr1215     O2881   2.367   1_455  S
Zr1215     O1223   2.312   1_565  S
O1216     Zr1242   2.354   1_565  S
O1216     Zr2901   2.316   1_455  S
O1217     Zr2899   2.337   1_455  S
H1222      O1223   0.962       .  S
O1223     Zr1242   2.344   1_556  S
H1224      O1225   0.962       .  S
O1225     Zr2871   2.367       .  S
O1225     Zr1243   2.311       .  S
O1225     Zr1245   2.346   1_556  S
O1226      C1249   1.310       .  A
O1227      C1250   1.296   1_556  A
O1228     Zr1244   2.471       .  S
O1228      C1251   1.296   1_556  A
O1229     Zr1245   2.498       .  S
O1229      C2908   1.308       .  A
O1230     Zr1245   2.461       .  S
O1230      C1253   1.294       .  A
O1231     Zr1244   2.517       .  S
O1231      C1254   1.313   1_455  A
O1232     Zr1246   2.460       .  S
O1232      C1255   1.293       .  A
O1233     Zr2902   2.491       .  S
O1234     Zr1244   2.462   1_554  S
O1234      C1255   1.301       .  A
O1235     Zr1245   2.394       .  S
O1235      C1256   1.283       .  A
O1236      C1251   1.302       .  A
O1237      C2910   1.278       .  A
O1238     Zr1243   2.462   1_554  S
O1238      C1253   1.300       .  A
O1239     Zr1242   2.387   1_565  S
O1239      C1252   1.280       .  A
O1240     Zr1246   2.389       .  S
O1240      C1249   1.281       .  A
O1241     Zr2902   2.464       .  S
O1241      C1250   1.300       .  A
Zr1242     O1260   2.345   1_545  S
Zr1243     O2873   2.337       .  S
Zr1243     O1247   2.330   1_556  S
Zr1243     O2086   2.368   1_565  S
Zr1244     O1248   2.332   1_556  S
Zr1244     O1258   2.311       .  S
Zr1245     O2872   2.316       .  S
Zr1245     O1247   2.355       .  S
Zr1245     O2916   2.345       .  S
Zr1246     O2889   2.491   1_455  S
Zr1246     O2897   2.464   1_455  S
Zr1246     O2075   2.315   1_455  S
Zr1246     O1248   2.356       .  S
Zr1246     O1258   2.342   1_554  S
O1247     Zr2074   2.315   1_565  S
C1252      O2885   1.308       .  A
C1254      C2804   1.481       .  S
C1254      O2893   1.278       .  A
H1257      O1258   0.962       .  S
O1258     Zr2071   2.368   1_455  S
H1259      O1260   0.965       .  S
O1260     Zr2901   2.345   1_455  S
O1261     Zr1297   2.497       .  S
O1261      C1272   1.308       .  A
O1262     Zr1296   2.468       .  S
O1262      C1273   1.296       .  A
O1263     Zr1269   2.459       .  S
O1263      C1274   1.293       .  A
O1264     Zr1269   2.504       .  S
O1264      C1275   1.309       .  A
O1265     Zr1299   2.400       .  S
O1265      C1275   1.284       .  A
O1266     Zr1298   2.461       .  S
O1266      C1274   1.300       .  A
O1267     Zr1269   2.466       .  S
O1267      C1273   1.301       .  A
O1268     Zr1269   2.393       .  S
O1268      C1272   1.283       .  A
Zr1269     O1270   2.317       .  S
Zr1269     O1271   2.357       .  S
Zr1269     O1279   2.345       .  S
Zr1269     O1277   2.345       .  S
O1270     Zr1296   2.336       .  S
O1270     Zr1299   2.355       .  S
O1271     Zr1297   2.313       .  S
O1271     Zr1298   2.330       .  S
H1276      O1277   0.962       .  S
O1277     Zr1296   2.367       .  S
O1277     Zr1298   2.315       .  S
H1278      O1279   0.965       .  S
O1279     Zr1297   2.350       .  S
O1279     Zr1299   2.348       .  S
O1280     Zr1296   2.522       .  S
O1280      C1303   1.313       .  A
O1281     Zr1297   2.457       .  S
O1281      C1304   1.293       .  A
O1282     Zr1298   2.499       .  S
O1282      C1305   1.309       .  A
O1283     Zr1299   2.461       .  S
O1283      C1306   1.294       .  A
O1284     Zr1299   2.499       .  S
O1284      C1307   1.309       .  A
O1285     Zr1298   2.468       .  S
O1285      C1308   1.295       .  A
O1286     Zr1300   2.516       .  S
O1286      C1309   1.312       .  A
O1287     Zr1300   2.460       .  S
O1287      C1310   1.294       .  A
O1288     Zr1298   2.382       .  S
O1288      C1309   1.280       .  A
O1289     Zr1299   2.474       .  S
O1289      C1310   1.303       .  A
O1290     Zr1296   2.385       .  S
O1290      C1305   1.281       .  A
O1291     Zr1297   2.468       .  S
O1291      C1308   1.301       .  A
O1292     Zr1297   2.389       .  S
O1292      C1307   1.281       .  A
O1293     Zr1296   2.462       .  S
O1293      C1306   1.300       .  A
O1294     Zr1300   2.386       .  S
O1294      C1303   1.282       .  A
O1295     Zr1300   2.464       .  S
O1295      C1304   1.301       .  A
Zr1296     O1302   2.344       .  S
Zr1296     O1314   2.311       .  S
Zr1297     O1301   2.356       .  S
Zr1297     O1312   2.344       .  S
Zr1298     O1302   2.345       .  S
Zr1298     O1312   2.362       .  S
Zr1299     O1301   2.317       .  S
Zr1299     O1314   2.344       .  S
Zr1300     O1301   2.334       .  S
Zr1300     O1302   2.339       .  S
Zr1300     O1314   2.363       .  S
Zr1300     O1312   2.311       .  S
C1308      C2674   1.504       .  S
H1311      O1312   0.962       .  S
H1313      O1314   0.962       .  S
O1315     Zr1351   2.460       .  S
O1315      C1326   1.294       .  A
O1316     Zr1350   2.514       .  S
O1316      C1327   1.312       .  A
O1317     Zr1323   2.469       .  S
O1317      C1328   1.296       .  A
O1318     Zr1323   2.515       .  S
O1318      C1329   1.312       .  A
O1319     Zr1353   2.376       .  S
O1319      C1329   1.279       .  A
O1320     Zr1352   2.463       .  S
O1320      C1328   1.300       .  A
O1321     Zr1323   2.383       .  S
O1321      C1327   1.281       .  A
O1322     Zr1323   2.466       .  S
O1322      C1326   1.302       .  A
Zr1323     O1324   2.339       .  S
Zr1323     O1325   2.332       .  S
Zr1323     O1333   2.313       .  S
Zr1323     O1331   2.365       .  S
O1324     Zr1350   2.339       .  S
O1324     Zr1353   2.339       .  S
O1325     Zr1351   2.356       .  S
O1325     Zr1352   2.312       .  S
H1330      O1331   0.962       .  S
O1331     Zr1350   2.315       .  S
O1331     Zr1352   2.344       .  S
H1332      O1333   0.962       .  S
O1333     Zr1351   2.345       .  S
O1333     Zr1353   2.363       .  S
O1334     Zr1350   2.469       .  S
O1334      C1357   1.296       .  A
O1335     Zr1351   2.502       .  S
O1335      C1358   1.309       .  A
O1336     Zr1352   2.456       .  S
O1336      C1359   1.292       .  A
O1337     Zr1353   2.500       .  S
O1337      C1360   1.309       .  A
O1338     Zr1353   2.464       .  S
O1338      C1361   1.294       .  A
O1339     Zr1352   2.495       .  S
O1339      C1362   1.308       .  A
O1340     Zr1354   2.503       .  S
O1340      C1363   1.310       .  A
O1341     Zr1354   2.461       .  S
O1341      C1364   1.294       .  A
O1342     Zr1352   2.387       .  S
O1342      C1363   1.281       .  A
O1343     Zr1353   2.455       .  S
O1343      C1364   1.299       .  A
O1344     Zr1350   2.462       .  S
O1344      C1359   1.301       .  A
O1345     Zr1351   2.390       .  S
O1345      C1362   1.282       .  A
O1346     Zr1351   2.467       .  S
O1346      C1361   1.301       .  A
O1347     Zr1350   2.383       .  S
O1347      C1360   1.281       .  A
O1348     Zr1354   2.468       .  S
O1348      C1357   1.301       .  A
O1349     Zr1354   2.389       .  S
O1349      C1358   1.282       .  A
Zr1350     O1356   2.331       .  S
Zr1350     O1368   2.365       .  S
Zr1351     O1355   2.315       .  S
Zr1351     O1366   2.347       .  S
Zr1352     O1356   2.354       .  S
Zr1352     O1366   2.346       .  S
Zr1353     O1355   2.331       .  S
Zr1353     O1368   2.313       .  S
Zr1354     O1355   2.357       .  S
Zr1354     O1356   2.313       .  S
Zr1354     O1368   2.342       .  S
Zr1354     O1366   2.346       .  S
H1365      O1366   0.965       .  S
H1367      O1368   0.962       .  S
O1369     Zr1405   2.503       .  S
O1369      C1380   1.309       .  A
O1370     Zr1404   2.468       .  S
O1370      C1381   1.295       .  A
O1371     Zr1377   2.465       .  S
O1371      C1382   1.294       .  A
O1372     Zr1377   2.500       .  S
O1372      C1383   1.309       .  A
O1373     Zr1407   2.392       .  S
O1373      C1383   1.282       .  A
O1374     Zr1406   2.463       .  S
O1374      C1382   1.300       .  A
O1375     Zr1377   2.474       .  S
O1375      C1381   1.303       .  A
O1376     Zr1377   2.395       .  S
O1376      C1380   1.283       .  A
Zr1377     O1378   2.316       .  S
Zr1377     O1379   2.349       .  S
Zr1377     O1387   2.350       .  S
Zr1377     O1385   2.344       .  S
O1378     Zr1404   2.332       .  S
O1378     Zr1407   2.357       .  S
O1379     Zr1405   2.309       .  S
O1379     Zr1406   2.330       .  S
H1384      O1385   0.962       .  S
O1385     Zr1404   2.365       .  S
O1385     Zr1406   2.312       .  S
H1386      O1387   0.965       .  S
O1387     Zr1405   2.345       .  S
O1387     Zr1407   2.349       .  S
O1388     Zr1404   2.509       .  S
O1388      C1411   1.311       .  A
O1389     Zr1405   2.452       .  S
O1389      C1412   1.292       .  A
O1390     Zr1406   2.512       .  S
O1390      C1413   1.311       .  A
O1391     Zr1407   2.454       .  S
O1391      C1414   1.292       .  A
O1392     Zr1407   2.499       .  S
O1392      C1415   1.308       .  A
O1393     Zr1406   2.450       .  S
O1393      C1416   1.292       .  A
O1394     Zr1408   2.506       .  S
O1394      C1417   1.310       .  A
O1395     Zr1408   2.461       .  S
O1395      C1418   1.294       .  A
O1396     Zr1406   2.387       .  S
O1396      C1417   1.281       .  A
O1397     Zr1407   2.472       .  S
O1397      C1418   1.303       .  A
O1398     Zr1404   2.386       .  S
O1398      C1413   1.281       .  A
O1399     Zr1405   2.469       .  S
O1399      C1416   1.302       .  A
O1400     Zr1405   2.402       .  S
O1400      C1415   1.284       .  A
O1401     Zr1404   2.461       .  S
O1401      C1414   1.300       .  A
O1402     Zr1408   2.380       .  S
O1402      C1411   1.280       .  A
O1403     Zr1408   2.462       .  S
O1403      C1412   1.300       .  A
Zr1404     O1410   2.339       .  S
Zr1404     O1422   2.318       .  S
Zr1405     O1409   2.355       .  S
Zr1405     O1420   2.348       .  S
Zr1406     O1410   2.338       .  S
Zr1406     O1420   2.366       .  S
Zr1407     O1409   2.313       .  S
Zr1407     O1422   2.345       .  S
Zr1408     O1409   2.332       .  S
Zr1408     O1410   2.341       .  S
Zr1408     O1422   2.365       .  S
Zr1408     O1420   2.309       .  S
H1419      O1420   0.962       .  S
H1421      O1422   0.963       .  S
O1423      C3090   1.312       .  A
O1424      C1435   1.293       .  A
O1425     Zr1431   2.512       .  S
O1426     Zr1431   2.459       .  S
O1426      C1437   1.294       .  A
O1427     Zr1461   2.463       .  S
O1427      C1437   1.301       .  A
O1428     Zr1460   2.375       .  S
O1428      C1436   1.279       .  A
O1429     Zr1431   2.468       .  S
O1429      C1435   1.302       .  A
O1430     Zr1431   2.386       .  S
O1430      C1434   1.281       .  A
Zr1431     O1432   2.332       .  S
Zr1431     O1441   2.365       .  S
O1432     Zr1461   2.316       .  S
O1433     Zr3115   2.339   1_465  S
O1433     Zr1460   2.338       .  S
C1434      O3079   1.312       .  A
H1438      O1439   0.962       .  S
O1439     Zr1458   2.345       .  S
O1439     Zr1460   2.365       .  S
H1440      O1441   0.962       .  S
O1441     Zr2287   2.313   1_455  S
O1441     Zr1461   2.348       .  S
O1442     Zr1458   2.500       .  S
O1442      C1465   1.309   1_455  A
O1443     Zr1459   2.467   1_565  S
O1443      C1466   1.295       .  A
O1444     Zr1460   2.467       .  S
O1444      C1467   1.295       .  A
O1445     Zr1461   2.501       .  S
O1445      C1468   1.309       .  A
O1446     Zr3117   2.455       .  S
O1446      C1469   1.293       .  A
O1447     Zr3116   2.510       .  S
O1447      C1470   1.310       .  A
O1448     Zr1462   2.458       .  S
O1448      C1471   1.293       .  A
O1449     Zr1462   2.498       .  S
O1449      C1472   1.308   1_565  A
O1450     Zr3116   2.455       .  S
O1450      C1471   1.299       .  A
O1451     Zr3117   2.401       .  S
O1452     Zr1458   2.471       .  S
O1452      C1467   1.302       .  A
O1453     Zr1459   2.385   1_565  S
O1453      C1470   1.281       .  A
O1454      C1469   1.301       .  A
O1455      C1468   1.283       .  A
O1456     Zr1462   2.389       .  S
O1456      C3121   1.282       .  A
O1457     Zr1462   2.466       .  S
O1457      C1466   1.301       .  A
Zr1458     O1464   2.316       .  S
Zr1458     O1476   2.349       .  S
Zr1459     O3089   2.339   1_545  S
Zr1459     O2269   2.313       .  S
Zr1459     O1463   2.334       .  S
Zr1459     O1474   2.366   1_545  S
Zr1460     O3103   2.510   1_455  S
Zr1460     O3106   2.455   1_455  S
Zr1460     O1464   2.332       .  S
Zr1460     O3130   2.314   1_455  S
Zr1461     O3102   2.455   1_455  S
Zr1461     O3107   2.401   1_455  S
Zr1461     O2291   2.355   1_455  S
Zr1462     O1463   2.313   1_565  S
Zr1462     O3120   2.356       .  S
Zr1462     O3132   2.349       .  S
Zr1462     O1474   2.346       .  S
O1463     Zr2289   2.355       .  S
O1464     Zr3118   2.356   1_455  S
C1465      C2561   1.480       .  S
C1465      O3112   1.282       .  A
H1473      O1474   0.962       .  S
O1474     Zr3116   2.314       .  S
H1475      O1476   0.965       .  S
O1476     Zr3118   2.349   1_455  S
C1477      C1478   1.393       .  A
C1477      C1482   1.385       .  A
C1477      H1484   1.084       .  S
C1478      C1479   1.412       .  A
C1479      C1480   1.386       .  A
C1479     Br1486   1.924       .  S
C1480      C1481   1.393       .  A
C1480      H1485   1.084       .  S
C1481      C1482   1.412       .  A
C1482     Br1483   1.921       .  S
C1487      C1488   1.407       .  A
C1487      C1492   1.387   1_455  A
C1487      H1494   1.084       .  S
C1488      C1489   1.401   1_554  A
C1489      C1490   1.388       .  A
C1489     Br1496   1.920       .  S
C1490      C1491   1.408   1_456  A
C1490      H3151   1.084       .  S
C1491      C2775   1.460   1_554  S
C1491      C1492   1.402       .  A
C1492     Br1493   1.921       .  S
H1495      C3146   1.084       .  S
C1497      C1498   1.405       .  A
C1497      C1502   1.385       .  A
C1497      H1504   1.084       .  S
C1498      C1499   1.400       .  A
C1499      C1500   1.386       .  A
C1499     Br1506   1.920       .  S
C1500      C1501   1.405       .  A
C1500      H1505   1.084       .  S
C1501      C2766   1.450       .  S
C1501      C1502   1.399       .  A
C1502     Br1503   1.920       .  S
C1507      C1512   1.385   1_545  A
C1507      H1514   1.084       .  S
C1508      C1509   1.413       .  A
C1509     Br1516   1.924       .  S
C1510      C1511   1.394       .  A
C1510      H1515   1.084       .  S
C1511      C1512   1.414       .  A
C1512     Br1513   1.922   1_565  S
C1517      C1518   1.393       .  A
C1517      C1522   1.385       .  A
C1517      H1524   1.084       .  S
C1518      C1519   1.412       .  A
C1519      C1520   1.385       .  A
C1519     Br1526   1.920       .  S
C1520      C1521   1.393       .  A
C1520      H1525   1.084       .  S
C1521      C1522   1.412       .  A
C1522     Br1523   1.921       .  S
C1527      C1528   1.401       .  A
C1527      C1532   1.390       .  A
C1527      H1534   1.084       .  S
C1528      C1529   1.406       .  A
C1529      C1530   1.389       .  A
C1529     Br1536   1.921       .  S
C1530      C1531   1.401       .  A
C1530      H1535   1.084       .  S
C1531      C1532   1.406       .  A
C1532     Br1533   1.921       .  S
C1537      C1538   1.394       .  A
C1537      C1542   1.386       .  A
C1537      H1544   1.084       .  S
C1538      C1539   1.412       .  A
C1539      C1540   1.387       .  A
C1539     Br1546   1.924       .  S
C1540      C1541   1.395       .  A
C1540      H1545   1.084       .  S
C1541      C1542   1.412       .  A
C1542     Br1543   1.924       .  S
C1547      C1548   1.401       .  A
C1547      C1552   1.387       .  A
C1547      H1554   1.084       .  S
C1548      C1549   1.406       .  A
C1549      C1550   1.390       .  A
C1549     Br1556   1.921       .  S
C1550      C1551   1.401       .  A
C1550      H1555   1.084       .  S
C1551      C1552   1.405       .  A
C1552     Br1553   1.921       .  S
C1557      C1562   1.389       .  A
C1557      H1564   1.084       .  S
C1558      C1559   1.405       .  A
C1559      C1560   1.390       .  A
C1559     Br1566   1.920       .  S
C1560      H1565   1.084       .  S
C1561      C1562   1.405       .  A
C1562     Br1563   1.921       .  S
C1567      C1568   1.397       .  A
C1567      C1572   1.389       .  A
C1567      H1574   1.084       .  S
C1568      C1569   1.407       .  A
C1569      C1570   1.388       .  A
C1569     Br1576   1.919       .  S
C1570      C1571   1.396       .  A
C1570      H1575   1.084       .  S
C1571      C1572   1.407       .  A
C1572     Br1573   1.919       .  S
C1577      C1578   1.397       .  A
C1577      C1582   1.389       .  A
C1577      H1584   1.084       .  S
C1578      C1579   1.407       .  A
C1579      C1580   1.389       .  A
C1579     Br1586   1.919       .  S
C1580      C1581   1.397       .  A
C1580      H1585   1.084       .  S
C1581      C1582   1.407       .  A
C1582     Br3239   1.919       .  S
Br1583     C3238   1.919   1_455  S
C1587      C1588   1.407       .  A
C1587      C1592   1.387       .  A
C1587      H1594   1.084       .  S
C1588      C1589   1.400       .  A
C1589      C1590   1.386       .  A
C1589     Br1596   1.920       .  S
C1590      C1591   1.407       .  A
C1590      H1595   1.084       .  S
C1591      C1592   1.401       .  A
C1592     Br1593   1.920       .  S
C1597      C1598   1.411       .  A
C1597      C1602   1.392       .  A
C1597      H1604   1.079       .  S
C1598      C1599   1.428       .  A
C1599      C1600   1.385       .  A
C1599     Br1606   1.925       .  S
C1600      C1601   1.393       .  A
C1600      H1605   1.083       .  S
C1601      C1602   1.402       .  A
C1602     Br1603   1.914       .  S
C1607      C1608   1.394       .  A
C1607      C1612   1.388       .  A
C1607      H1614   1.084       .  S
C1608      C1609   1.412       .  A
C1609      C1610   1.384       .  A
C1609     Br1616   1.917       .  S
C1610      C1611   1.392       .  A
C1610      H1615   1.084       .  S
C1611      C1612   1.413       .  A
C1612     Br1613   1.923       .  S
C1617      C1618   1.394       .  A
C1617      C1622   1.387       .  A
C1617      H1624   1.084       .  S
C1618      C1619   1.409   1_554  A
C1619      C1620   1.386   1_556  A
C1619     Br1626   1.919       .  S
C1620      C1621   1.393       .  A
C1620      H1625   1.084   1_554  S
C1621      C1622   1.409       .  A
C1622     Br1623   1.922       .  S
C1627      C1628   1.395       .  A
C1627      C3288   1.389       .  A
C1627      H1634   1.084       .  S
C1628      C3285   1.406       .  A
C1629      C3284   1.406   1_455  A
C1629      C1630   1.384       .  A
C1629     Br1636   1.913       .  S
C1630      C1631   1.393       .  A
C1630      H1635   1.084       .  S
C1631      C1632   1.408       .  A
C1632      C3283   1.389   1_455  A
C1632     Br3289   1.920   1_455  S
Br1633     C3288   1.920       .  S
C1637      C1638   1.395       .  A
C1637      C1642   1.388       .  A
C1637      H1644   1.084       .  S
C1638      C1639   1.415       .  A
C1639      C1640   1.384       .  A
C1639     Br1646   1.923       .  S
C1640      C1641   1.393       .  A
C1640      H1645   1.084       .  S
C1641      C1642   1.414       .  A
C1642     Br1643   1.924       .  S
C1647      C1648   1.401       .  A
C1647      C1652   1.389       .  A
C1647      H1654   1.084       .  S
C1648      C2496   1.453       .  S
C1648      C1649   1.404       .  A
C1649      C1650   1.389       .  A
C1649     Br1656   1.920       .  S
C1650      C1651   1.402       .  A
C1650      H1655   1.084       .  S
C1651      C1652   1.404       .  A
C1652     Br1653   1.921       .  S
C1657      C2154   1.504       .  S
C1657      C2486   1.407       .  A
C1657      C2490   1.430       .  A
C1658      C2485   1.407       .  A
C1658      C1659   1.390       .  A
C1658      H2491   1.084       .  S
C1659      C2479   1.454       .  S
C1659      C1660   1.382       .  A
C1660      C1661   1.390       .  A
C1660      H1664   1.085       .  S
C1661      C1992   1.489       .  S
C1661      C1662   1.429       .  A
C1662      C2485   1.430       .  A
C1662      H1665   1.082       .  S
H1663      C2486   1.084       .  S
C1666      C2185   1.505       .  S
C1666      C1667   1.408       .  A
C1666      C1671   1.428       .  A
C1667      C1668   1.392       .  A
C1667      H1672   1.084       .  S
C1668      C1669   1.384       .  A
C1669      C1670   1.387       .  A
C1670      C2262   1.487       .  S
C1670      C1671   1.429       .  A
C1671      H1674   1.083       .  S
C1675      C2822   1.499       .  S
C1675      C1676   1.407       .  A
C1675      C1680   1.428       .  A
C1676      C1677   1.391       .  A
C1676      H1681   1.084       .  S
C1677      C2469   1.456       .  S
C1677      C1678   1.376       .  A
C1678      C1679   1.387       .  A
C1678      H1682   1.085       .  S
C1679      C2190   1.481       .  S
C1679      C1680   1.427       .  A
C1680      H1683   1.083       .  S
C1684      C2030   1.503       .  S
C1684      C1685   1.410       .  A
C1684      C1689   1.427       .  A
C1685      C1686   1.394       .  A
C1685      H1690   1.083       .  S
C1686      C2466   1.457       .  S
C1686      C1687   1.378       .  A
C1687      C1688   1.383       .  A
C1687      H1691   1.086       .  S
C1688      C2046   1.479       .  S
C1688      C1689   1.427       .  A
C1689      H1692   1.083       .  S
C1693      C2299   1.499       .  S
C1693      C1694   1.407       .  A
C1693      C1698   1.427       .  A
C1694      C1695   1.387       .  A
C1694      H1699   1.084       .  S
C1695      C2456   1.446       .  S
C1695      C1696   1.378       .  A
C1696      C1697   1.388       .  A
C1696      H1700   1.086       .  S
C1697      C2100   1.482       .  S
C1697      C1698   1.427       .  A
C1698      H1701   1.082       .  S
C1702      C2265   1.497       .  S
C1702      C1703   1.426       .  A
C1702      C1707   1.407       .  A
C1703      C1704   1.428       .  A
C1703      H1708   1.083       .  S
C1704      C2188   1.482       .  S
C1704      C1705   1.387       .  A
C1705      C1706   1.378       .  A
C1705      H1709   1.085       .  S
C1706      C2459   1.444       .  S
C1706      C1707   1.387       .  A
C1707      H1710   1.084       .  S
C1711      C2049   1.503   1_556  S
C1711      C1712   1.409   1_556  A
C1711      C1716   1.428       .  A
C1712      C1713   1.390   1_554  A
C1712      H1717   1.084       .  S
C1713      C2446   1.449   1_556  S
C1713      C1714   1.379       .  A
C1714      C1715   1.385       .  A
C1714      H1718   1.085       .  S
C1715      C2023   1.484       .  S
C1715      C1716   1.430       .  A
C1716      H1719   1.083       .  S
C1720      C2083   1.503       .  S
C1720      C1721   1.407       .  A
C1720      C1725   1.431       .  A
C1721      C1722   1.388       .  A
C1721      H1726   1.084       .  S
C1722      C2449   1.447       .  S
C1722      C1723   1.377       .  A
C1723      C1724   1.387       .  A
C1723      H1727   1.086       .  S
C1724      C2208   1.486       .  S
C1724      C1725   1.430       .  A
C1725      H1728   1.082       .  S
C1729      C2102   1.501       .  S
C1729      C1730   1.409       .  A
C1729      C1734   1.428       .  A
C1730      H1735   1.084       .  S
C1731      C2436   1.454       .  S
C1731      C1732   1.377       .  A
C1732      H1736   1.086       .  S
C1733      C1734   1.426       .  A
C1734      H1737   1.082       .  S
C1738      C2239   1.484       .  S
C1738      C1739   1.385       .  A
C1738      C1743   1.430       .  A
C1739      C1740   1.377       .  A
C1739      H1744   1.085       .  S
C1740      C2439   1.452       .  S
C1740      C1741   1.391       .  A
C1741      C1742   1.407       .  A
C1741      H1745   1.084       .  S
C1742      C2966   1.502       .  S
C1742      C1743   1.429       .  A
C1743      H1746   1.082       .  S
C1747      C2210   1.500       .  S
C1747      C1748   1.415       .  A
C1747      C1752   1.423       .  A
C1748      C1749   1.410       .  A
C1748      H1753   1.079       .  S
C1749      C2426   1.502       .  S
C1749      C1750   1.384       .  A
C1750      C1751   1.383       .  A
C1750      H1754   1.072       .  S
C1751      C2077   1.482       .  S
C1751      C1752   1.420       .  A
C1752      H1755   1.083       .  S
C1756      C2246   1.503       .  S
C1756      C2585   1.403       .  A
C1756      C2589   1.426       .  A
C1757      C2584   1.403       .  A
C1757      C1758   1.397       .  A
C1757      H2590   1.083       .  S
C1758      C2429   1.467       .  S
C1758      C1759   1.392       .  A
C1759      C1760   1.386       .  A
C1759      H1763   1.083       .  S
C1760      C2131   1.490       .  S
C1760      C1761   1.428       .  A
C1761      C2584   1.426       .  A
C1761      H1764   1.083       .  S
H1762      C2585   1.083       .  S
C1765      C1766   1.428       .  A
C1765      C1770   1.407       .  A
C1766      C1767   1.426       .  A
C1766      H1771   1.082       .  S
C1767      C2186   1.483       .  S
C1767      C1768   1.386       .  A
C1768      C1769   1.380       .  A
C1768      H1772   1.086       .  S
C1769      C2416   1.456       .  S
C1769      C1770   1.391       .  A
C1770      H1773   1.083       .  S
C1774      C1993   1.502       .  S
C1774      C1775   1.408       .  A
C1774      C1779   1.427       .  A
C1775      C2604   1.393   1_545  A
C1775      H1780   1.083       .  S
C1776      C2419   1.457       .  S
C1776      C2603   1.393       .  A
C1776      C1777   1.382       .  A
C1777      C2606   1.384       .  A
C1777      H1781   1.085       .  S
C1778      C2876   1.483       .  S
C1778      C2605   1.384   1_545  A
C1778      C1779   1.428       .  A
C1779      H1782   1.083       .  S
C1783      C2156   1.502       .  S
C1783      C1784   1.408       .  A
C1783      C1788   1.427       .  A
C1784      C1785   1.391       .  A
C1784      H1789   1.084       .  S
C1785      C2406   1.450       .  S
C1785      C1786   1.381       .  A
C1786      C1787   1.388       .  A
C1786      H1790   1.085       .  S
C1787      C2298   1.485       .  S
C1787      C1788   1.429       .  A
C1788      H1791   1.083       .  S
C1792      C2192   1.500       .  S
C1792      C1793   1.408       .  A
C1793      H1798   1.084       .  S
C1794      C2409   1.451       .  S
C1794      C1795   1.379       .  A
C1795      C1796   1.390       .  A
C1795      H1799   1.085       .  S
C1796      C2027   1.484       .  S
C1796      C1797   1.427       .  A
C1801      C2263   1.504       .  S
C1801      C1802   1.431       .  A
C1801      C1806   1.406       .  A
C1802      C1803   1.430       .  A
C1802      H1807   1.082       .  S
C1803      C2103   1.489       .  S
C1803      C1804   1.389       .  A
C1804      C1805   1.380       .  A
C1804      H1808   1.085       .  S
C1805      C2396   1.450       .  S
C1805      C1806   1.389       .  A
C1806      H1809   1.084       .  S
C1810      C2294   1.503       .  S
C1810      C1811   1.428       .  A
C1810      C1815   1.407       .  A
C1811      C1812   1.430       .  A
C1811      H1816   1.083       .  S
C1812      C2155   1.486       .  S
C1812      C1813   1.387       .  A
C1813      C1814   1.381       .  A
C1813      H1817   1.085       .  S
C1814      C2399   1.449       .  S
C1814      C1815   1.390       .  A
C1815      H1818   1.084       .  S
C1819      C2079   1.506   1_556  S
C1819      C1820   1.409   1_556  A
C1819      C1824   1.428       .  A
C1820      C1821   1.394       .  A
C1820      H1825   1.084       .  S
C1821      C2386   1.455       .  S
C1821      C1822   1.384   1_554  A
C1822      C1823   1.387       .  A
C1822      H1826   1.085       .  S
C1823      C2025   1.487       .  S
C1823      C1824   1.429       .  A
C1824      H1827   1.083       .  S
C1828      C2081   1.502       .  S
C1828      C1829   1.429       .  A
C1828      C1833   1.408       .  A
C1829      C1830   1.428       .  A
C1829      H1834   1.082       .  S
C1830      C2243   1.488       .  S
C1830      C1831   1.389       .  A
C1831      C1832   1.382       .  A
C1831      H1835   1.085       .  S
C1832      C2389   1.455       .  S
C1832      C1833   1.391       .  A
C1833      H1836   1.084       .  S
C1837      C2134   1.503       .  S
C1837      C1838   1.407       .  A
C1837      C1842   1.429       .  A
C1838      C1839   1.391       .  A
C1838      H1843   1.084       .  S
C1839      C2376   1.455       .  S
C1839      C1840   1.382       .  A
C1840      C1841   1.388       .  A
C1840      H1844   1.085       .  S
C1841      C2296   1.486       .  S
C1841      C1842   1.428       .  A
C1842      H1845   1.082       .  S
C1846      C1847   1.429       .  A
C1846      C1851   1.408       .  A
C1847      C1848   1.430       .  A
C1847      H1852   1.083       .  S
C1848      C2241   1.487       .  S
C1848      C1849   1.386       .  A
C1849      C1850   1.382       .  A
C1849      H1853   1.085       .  S
C1850      C2379   1.453       .  S
C1850      C1851   1.391       .  A
C1851      H1854   1.084       .  S
C1855      C2137   1.487       .  S
C1855      C1856   1.385       .  A
C1855      C1860   1.431       .  A
C1856      C1857   1.379       .  A
C1856      H1861   1.085       .  S
C1857      C2369   1.453       .  S
C1857      C1858   1.391       .  A
C1859      C2209   1.506       .  S
C1864      C2240   1.498       .  S
C1864      C1865   1.408       .  A
C1864      C1869   1.428       .  A
C1865      C1866   1.390       .  A
C1865      H1870   1.084       .  S
C1866      C3194   1.453       .  S
C1866      C1867   1.377       .  A
C1867      C1868   1.387       .  A
C1867      H2699   1.086       .  S
C1868      C2084   1.481       .  S
C1868      C1869   1.425       .  A
C1869      H1872   1.083       .  S
H1871      C2695   1.086   1_545  S
C1873      C2101   1.503       .  S
C1873      C1874   1.409       .  A
C1873      C1878   1.427       .  A
C1874      C1875   1.393       .  A
C1874      H1879   1.083       .  S
C1875      C2356   1.455       .  S
C1875      C1876   1.383       .  A
C1876      C1877   1.387       .  A
C1876      H1880   1.085       .  S
C1877      C2245   1.485       .  S
C1877      C1878   1.427       .  A
C1878      H1881   1.083       .  S
C1882      C2132   1.502       .  S
C1882      C1883   1.407       .  A
C1882      C1887   1.429       .  A
C1883      C2712   1.391   1_545  A
C1883      H1888   1.084       .  S
C1884      C2359   1.456       .  S
C1884      C2711   1.391       .  A
C1884      C1885   1.382       .  A
C1885      C2714   1.389       .  A
C1885      H1889   1.085       .  S
C1886      C3128   1.488       .  S
C1886      C2713   1.389   1_545  A
C1886      C1887   1.428       .  A
C1887      H1890   1.082       .  S
C1891      C2187   1.500       .  S
C1891      C1892   1.429       .  A
C1891      C1896   1.407       .  A
C1892      C1893   1.427       .  A
C1892      H1897   1.082       .  S
C1893      C1995   1.481       .  S
C1893      C1894   1.385       .  A
C1894      C1895   1.375       .  A
C1894      H1898   1.086       .  S
C1895      C2346   1.451       .  S
C1895      C1896   1.390       .  A
C1896      H1899   1.084       .  S
C1900      C2189   1.502       .  S
C1900      C1901   1.428       .  A
C1900      C1905   1.408       .  A
C1901      C1902   1.430       .  A
C1901      H1906   1.083       .  S
C1902      C2264   1.482       .  S
C1902      C1903   1.383       .  A
C1903      C1904   1.377       .  A
C1903      H2735   1.085       .  S
C1904      C3177   1.452       .  S
C1904      C1905   1.391       .  A
C1905      H1908   1.084       .  S
H1907      C2731   1.085   1_545  S
C1909      C2297   1.501       .  S
C1909      C1910   1.407       .  A
C1909      C1914   1.429       .  A
C1910      C1911   1.391       .  A
C1910      H1915   1.084       .  S
C1911      C2336   1.453       .  S
C1911      C1912   1.376       .  A
C1912      C1913   1.386       .  A
C1912      H1916   1.086       .  S
C1913      C2135   1.482       .  S
C1913      C1914   1.427       .  A
C1914      H1917   1.082       .  S
C1918      C2295   1.504       .  S
C1918      C1919   1.429       .  A
C1918      C1923   1.409       .  A
C1919      C1920   1.430       .  A
C1919      H1924   1.083       .  S
C1920      C2157   1.484       .  S
C1920      C1921   1.384       .  A
C1921      C1922   1.378       .  A
C1921      H1925   1.085       .  S
C1922      C2339   1.454       .  S
C1922      C1923   1.392       .  A
C1923      H1926   1.084       .  S
C1927      C2244   1.495       .  S
C1927      C1928   1.406       .  A
C1927      C1932   1.427       .  A
C1928      C1929   1.390       .  A
C1928      H1933   1.083       .  S
C1929      C2326   1.451       .  S
C1929      C1930   1.380       .  A
C1930      C1931   1.385       .  A
C1930      H1934   1.085       .  S
C1931      C2133   1.480       .  S
C1931      C1932   1.426       .  A
C1932      H1935   1.083       .  S
C1936      C2242   1.500       .  S
C1936      C1937   1.407       .  A
C1936      C1941   1.429       .  A
C1937      C1938   1.389       .  A
C1937      H1942   1.084       .  S
C1938      C1939   1.378       .  A
C1939      C1940   1.385       .  A
C1939      H1943   1.086       .  S
C1940      C2080   1.482       .  S
C1940      C1941   1.427       .  A
C1941      H1944   1.082       .  S
C1945      C2078   1.502   1_556  S
C1945      C1946   1.409   1_556  A
C1945      C1950   1.426       .  A
C1946      C1947   1.393   1_554  A
C1946      H1951   1.083       .  S
C1947      C1948   1.382       .  A
C1948      C1949   1.386       .  A
C1948      H1952   1.085       .  S
C1949      C2029   1.484       .  S
C1949      C1950   1.428       .  A
C1950      H1953   1.083       .  S
C1954      C2047   1.500       .  S
C1954      C1955   1.427       .  A
C1954      C1959   1.409       .  A
C1955      C1956   1.425       .  A
C1955      H1960   1.082       .  S
C1956      C2211   1.481       .  S
C1956      C1957   1.387       .  A
C1957      C1958   1.381       .  A
C1957      H1961   1.086       .  S
C1958      C2316   1.459       .  S
C1958      C1959   1.393       .  A
C1959      H1962   1.083       .  S
C1963      C2026   1.501       .  S
C1963      C1964   1.407       .  A
C1963      C1968   1.430       .  A
C1964      C1965   1.390       .  A
C1964      H1969   1.084       .  S
C1965      C2309   1.450       .  S
C1965      C1966   1.376       .  A
C1966      C1967   1.385       .  A
C1966      H1970   1.086       .  S
C1967      C2191   1.482       .  S
C1967      C1968   1.428       .  A
C1968      H1971   1.082       .  S
C1972      C2028   1.502       .  S
C1972      C1973   1.408       .  A
C1972      C1977   1.428       .  A
C1973      H1978   1.084       .  S
C1974      C2306   1.450       .  S
C1974      C1975   1.377       .  A
C1975      H1979   1.085       .  S
C1976      C1977   1.430       .  A
C1977      H1980   1.083       .  S
O1981     Zr2017   2.502       .  S
O1981      C1992   1.309       .  A
O1982     Zr2016   2.463       .  S
O1982      C1993   1.295       .  A
O1983     Zr1989   2.455       .  S
O1983      C1994   1.293       .  A
O1984     Zr1989   2.498       .  S
O1984      C1995   1.309       .  A
O1985     Zr2019   2.388       .  S
O1985      C1995   1.281       .  A
O1986     Zr2018   2.464       .  S
O1986      C1994   1.301       .  A
O1987     Zr1989   2.468       .  S
O1987      C1993   1.302       .  A
O1988     Zr1989   2.402       .  S
O1988      C1992   1.284       .  A
Zr1989     O1990   2.314       .  S
Zr1989     O1991   2.353       .  S
Zr1989     O1999   2.346       .  S
Zr1989     O1997   2.348       .  S
O1990     Zr2016   2.332       .  S
O1990     Zr2019   2.354       .  S
O1991     Zr2017   2.314       .  S
O1991     Zr2018   2.333       .  S
C1994      C2503   1.499   1_545  S
H1996      O1997   0.962       .  S
O1997     Zr2016   2.365       .  S
O1997     Zr2018   2.313       .  S
H1998      O1999   0.965       .  S
O1999     Zr2017   2.346       .  S
O1999     Zr2019   2.349       .  S
O2000     Zr2016   2.512       .  S
O2000      C2023   1.311       .  A
O2001     Zr2017   2.455       .  S
O2001      C2024   1.293       .  A
O2002     Zr2018   2.517       .  S
O2002      C2025   1.312       .  A
O2003     Zr2019   2.456       .  S
O2003      C2026   1.292       .  A
O2004     Zr2019   2.494       .  S
O2004      C2027   1.307       .  A
O2005     Zr2018   2.466       .  S
O2005      C2028   1.295       .  A
O2006     Zr2020   2.511       .  S
O2006      C2029   1.311       .  A
O2007     Zr2020   2.470       .  S
O2007      C2030   1.296       .  A
O2008     Zr2018   2.380       .  S
O2008      C2029   1.280       .  A
O2009     Zr2019   2.464       .  S
O2009      C2030   1.300       .  A
O2010     Zr2016   2.384       .  S
O2010      C2025   1.281       .  A
O2011     Zr2017   2.469       .  S
O2011      C2028   1.302       .  A
O2012     Zr2017   2.398       .  S
O2012      C2027   1.283       .  A
O2013     Zr2016   2.463       .  S
O2013      C2026   1.301       .  A
O2014     Zr2020   2.379       .  S
O2014      C2023   1.280       .  A
O2015     Zr2020   2.462       .  S
O2015      C2024   1.300       .  A
Zr2016     O2022   2.338       .  S
Zr2016     O2034   2.314       .  S
Zr2017     O2021   2.357       .  S
Zr2017     O2032   2.348       .  S
Zr2018     O2022   2.339       .  S
Zr2018     O2032   2.367       .  S
Zr2019     O2021   2.314       .  S
Zr2019     O2034   2.343       .  S
Zr2020     O2021   2.332       .  S
Zr2020     O2022   2.339       .  S
Zr2020     O2034   2.364       .  S
Zr2020     O2032   2.313       .  S
H2031      O2032   0.962       .  S
H2033      O2034   0.962       .  S
O2035     Zr2071   2.519       .  S
O2035      C2046   1.313       .  A
O2036     Zr2070   2.459       .  S
O2036      C2047   1.293       .  A
O2037     Zr2043   2.516       .  S
O2037      C2048   1.312       .  A
O2038      C2049   1.296   1_556  A
O2039     Zr2073   2.463       .  S
O2039      C2049   1.300       .  A
O2040     Zr2072   2.375       .  S
O2040      C2876   1.279       .  A
O2041     Zr2043   2.456   1_554  S
O2041      C2047   1.299       .  A
O2042      C2046   1.277   1_455  A
Zr2043     O2044   2.329   1_556  S
Zr2043     O2045   2.337       .  S
Zr2043     O2051   2.312       .  S
O2044     Zr2070   2.354       .  S
O2045     Zr2900   2.338       .  S
C2048      C2606   1.483       .  S
C2048      O2868   1.279       .  A
H2050      O2051   0.962       .  S
O2051     Zr2070   2.344   1_556  S
O2051     Zr2900   2.365       .  S
H2052      O2053   0.962       .  S
O2053     Zr2071   2.311       .  S
O2053     Zr2073   2.346   1_556  S
O2054     Zr2898   2.507       .  S
O2054      C2077   1.310       .  A
O2055     Zr2899   2.470   1_545  S
O2055      C2078   1.296   1_556  A
O2056     Zr2072   2.471       .  S
O2056      C2079   1.296   1_556  A
O2057     Zr2073   2.498   1_455  S
O2058     Zr2073   2.461       .  S
O2058      C2081   1.294       .  A
O2059     Zr2072   2.517       .  S
O2059      C2082   1.313       .  A
O2060     Zr2074   2.460       .  S
O2060      C2083   1.293       .  A
O2061      C2912   1.307       .  A
O2062     Zr2072   2.462   1_554  S
O2062      C2083   1.301       .  A
O2063     Zr2073   2.394       .  S
O2063      C2084   1.283       .  A
O2064     Zr2898   2.469       .  S
O2064      C2079   1.302       .  A
O2065     Zr2899   2.369   1_545  S
O2066     Zr2071   2.462   1_554  S
O2066      C2081   1.300       .  A
O2067     Zr2070   2.387       .  S
O2067      C2080   1.280       .  A
O2068     Zr2074   2.389       .  S
O2068      C2077   1.281       .  A
O2069      C2078   1.300       .  A
Zr2070     O2882   2.507       .  S
Zr2070     O2892   2.469       .  S
Zr2070     O2904   2.316       .  S
Zr2070     O2088   2.345       .  S
Zr2071     O2883   2.470       .  S
Zr2071     O2893   2.369       .  S
Zr2071     O2075   2.330   1_556  S
Zr2072     O2873   2.338   1_545  S
Zr2072     O2879   2.365       .  S
Zr2072     O2076   2.332   1_556  S
Zr2072     O2086   2.311       .  S
Zr2073     O2075   2.355       .  S
Zr2074     O2076   2.356       .  S
Zr2074     O2916   2.348   1_545  S
Zr2074     O2086   2.342   1_554  S
O2076     Zr2898   2.316       .  S
C2084      O2889   1.307       .  A
H2085      O2086   0.962       .  S
H2087      O2088   0.965       .  S
O2088     Zr2902   2.348       .  S
O2089     Zr2125   2.497       .  S
O2089      C2100   1.308       .  A
O2090     Zr2124   2.468       .  S
O2090      C2101   1.296       .  A
O2091     Zr2097   2.459       .  S
O2091      C2102   1.293       .  A
O2092     Zr2097   2.504       .  S
O2092      C2103   1.309       .  A
O2093     Zr2127   2.400       .  S
O2093      C2103   1.284       .  A
O2094     Zr2126   2.461       .  S
O2094      C2102   1.300       .  A
O2095     Zr2097   2.466       .  S
O2095      C2101   1.301       .  A
O2096     Zr2097   2.393       .  S
O2096      C2100   1.283       .  A
Zr2097     O2098   2.317       .  S
Zr2097     O2099   2.357       .  S
Zr2097     O2107   2.345       .  S
Zr2097     O2105   2.345       .  S
O2098     Zr2124   2.336       .  S
O2098     Zr2127   2.355       .  S
O2099     Zr2125   2.313       .  S
O2099     Zr2126   2.330       .  S
H2104      O2105   0.962       .  S
O2105     Zr2124   2.367       .  S
O2105     Zr2126   2.315       .  S
H2106      O2107   0.965       .  S
O2107     Zr2125   2.350       .  S
O2107     Zr2127   2.348       .  S
O2108     Zr2124   2.522       .  S
O2108      C2131   1.313       .  A
O2109     Zr2125   2.457       .  S
O2109      C2132   1.293       .  A
O2110     Zr2126   2.499       .  S
O2110      C2133   1.309       .  A
O2111     Zr2127   2.461       .  S
O2111      C2134   1.294       .  A
O2112     Zr2127   2.499       .  S
O2112      C2135   1.309       .  A
O2113     Zr2126   2.468       .  S
O2113      C2136   1.295       .  A
O2114     Zr2128   2.516       .  S
O2114      C2137   1.312       .  A
O2115     Zr2128   2.460       .  S
O2115      C2138   1.294       .  A
O2116     Zr2126   2.382       .  S
O2116      C2137   1.280       .  A
O2117     Zr2127   2.474       .  S
O2117      C2138   1.303       .  A
O2118     Zr2124   2.385       .  S
O2118      C2133   1.281       .  A
O2119     Zr2125   2.468       .  S
O2119      C2136   1.301       .  A
O2120     Zr2125   2.389       .  S
O2120      C2135   1.281       .  A
O2121     Zr2124   2.462       .  S
O2121      C2134   1.300       .  A
O2122     Zr2128   2.386       .  S
O2122      C2131   1.282       .  A
O2123     Zr2128   2.464       .  S
O2123      C2132   1.301       .  A
Zr2124     O2130   2.344       .  S
Zr2124     O2142   2.311       .  S
Zr2125     O2129   2.356       .  S
Zr2125     O2140   2.344       .  S
Zr2126     O2130   2.345       .  S
Zr2126     O2140   2.362       .  S
Zr2127     O2129   2.317       .  S
Zr2127     O2142   2.344       .  S
Zr2128     O2129   2.334       .  S
Zr2128     O2130   2.339       .  S
Zr2128     O2142   2.363       .  S
Zr2128     O2140   2.311       .  S
C2138      C2570   1.502   1_545  S
H2139      O2140   0.962       .  S
H2141      O2142   0.962       .  S
O2143     Zr2179   2.460       .  S
O2143      C2154   1.294       .  A
O2144     Zr2178   2.514       .  S
O2144      C2155   1.312       .  A
O2145     Zr2151   2.469       .  S
O2145      C2156   1.296       .  A
O2146     Zr2151   2.515       .  S
O2146      C2157   1.312       .  A
O2147     Zr2181   2.376       .  S
O2147      C2157   1.279       .  A
O2148     Zr2180   2.463       .  S
O2148      C2156   1.300       .  A
O2149     Zr2151   2.383       .  S
O2149      C2155   1.281       .  A
O2150     Zr2151   2.466       .  S
O2150      C2154   1.302       .  A
Zr2151     O2152   2.339       .  S
Zr2151     O2153   2.332       .  S
Zr2151     O2161   2.313       .  S
Zr2151     O2159   2.365       .  S
O2152     Zr2178   2.339       .  S
O2152     Zr2181   2.339       .  S
O2153     Zr2179   2.356       .  S
O2153     Zr2180   2.312       .  S
H2158      O2159   0.962       .  S
O2159     Zr2178   2.315       .  S
O2159     Zr2180   2.344       .  S
H2160      O2161   0.962       .  S
O2161     Zr2179   2.345       .  S
O2161     Zr2181   2.363       .  S
O2162     Zr2178   2.469       .  S
O2162      C2185   1.296       .  A
O2163     Zr2179   2.502       .  S
O2163      C2186   1.309       .  A
O2164     Zr2180   2.456       .  S
O2164      C2187   1.292       .  A
O2165     Zr2181   2.500       .  S
O2165      C2188   1.309       .  A
O2166     Zr2181   2.464       .  S
O2166      C2189   1.294       .  A
O2167     Zr2180   2.495       .  S
O2167      C2190   1.308       .  A
O2168     Zr2182   2.503       .  S
O2168      C2191   1.310       .  A
O2169     Zr2182   2.461       .  S
O2169      C2192   1.294       .  A
O2170     Zr2180   2.387       .  S
O2170      C2191   1.281       .  A
O2171     Zr2181   2.455       .  S
O2171      C2192   1.299       .  A
O2172     Zr2178   2.462       .  S
O2172      C2187   1.301       .  A
O2173     Zr2179   2.390       .  S
O2173      C2190   1.282       .  A
O2174     Zr2179   2.467       .  S
O2174      C2189   1.301       .  A
O2175     Zr2178   2.383       .  S
O2175      C2188   1.281       .  A
O2176     Zr2182   2.468       .  S
O2176      C2185   1.301       .  A
O2177     Zr2182   2.389       .  S
O2177      C2186   1.282       .  A
Zr2178     O2184   2.331       .  S
Zr2178     O2196   2.365       .  S
Zr2179     O2183   2.315       .  S
Zr2179     O2194   2.347       .  S
Zr2180     O2184   2.354       .  S
Zr2180     O2194   2.346       .  S
Zr2181     O2183   2.331       .  S
Zr2181     O2196   2.313       .  S
Zr2182     O2183   2.357       .  S
Zr2182     O2184   2.313       .  S
Zr2182     O2196   2.342       .  S
Zr2182     O2194   2.346       .  S
H2193      O2194   0.965       .  S
H2195      O2196   0.962       .  S
O2197     Zr2233   2.503       .  S
O2197      C2208   1.309       .  A
O2198     Zr2232   2.468       .  S
O2198      C2209   1.295       .  A
O2199     Zr2205   2.465       .  S
O2199      C2210   1.294       .  A
O2200     Zr2205   2.500       .  S
O2200      C2211   1.309       .  A
O2201     Zr2235   2.392       .  S
O2201      C2211   1.282       .  A
O2202     Zr2234   2.463       .  S
O2202      C2210   1.300       .  A
O2203     Zr2205   2.474       .  S
O2203      C2209   1.303       .  A
O2204     Zr2205   2.395       .  S
O2204      C2208   1.283       .  A
Zr2205     O2206   2.316       .  S
Zr2205     O2207   2.349       .  S
Zr2205     O2215   2.350       .  S
Zr2205     O2213   2.344       .  S
O2206     Zr2232   2.332       .  S
O2206     Zr2235   2.357       .  S
O2207     Zr2233   2.309       .  S
O2207     Zr2234   2.330       .  S
H2212      O2213   0.962       .  S
O2213     Zr2232   2.365       .  S
O2213     Zr2234   2.312       .  S
H2214      O2215   0.965       .  S
O2215     Zr2233   2.345       .  S
O2215     Zr2235   2.349       .  S
O2216     Zr2232   2.509       .  S
O2216      C2239   1.311       .  A
O2217     Zr2233   2.452       .  S
O2217      C2240   1.292       .  A
O2218     Zr2234   2.512       .  S
O2218      C2241   1.311       .  A
O2219     Zr2235   2.454       .  S
O2219      C2242   1.292       .  A
O2220     Zr2235   2.499       .  S
O2220      C2243   1.308       .  A
O2221     Zr2234   2.450       .  S
O2221      C2244   1.292       .  A
O2222     Zr2236   2.506       .  S
O2222      C2245   1.310       .  A
O2223     Zr2236   2.461       .  S
O2223      C2246   1.294       .  A
O2224     Zr2234   2.387       .  S
O2224      C2245   1.281       .  A
O2225     Zr2235   2.472       .  S
O2225      C2246   1.303       .  A
O2226     Zr2232   2.386       .  S
O2226      C2241   1.281       .  A
O2227     Zr2233   2.469       .  S
O2227      C2244   1.302       .  A
O2228     Zr2233   2.402       .  S
O2228      C2243   1.284       .  A
O2229     Zr2232   2.461       .  S
O2229      C2242   1.300       .  A
O2230     Zr2236   2.380       .  S
O2230      C2239   1.280       .  A
O2231     Zr2236   2.462       .  S
O2231      C2240   1.300       .  A
Zr2232     O2238   2.339       .  S
Zr2232     O2250   2.318       .  S
Zr2233     O2237   2.355       .  S
Zr2233     O2248   2.348       .  S
Zr2234     O2238   2.338       .  S
Zr2234     O2248   2.366       .  S
Zr2235     O2237   2.313       .  S
Zr2235     O2250   2.345       .  S
Zr2236     O2237   2.332       .  S
Zr2236     O2238   2.341       .  S
Zr2236     O2250   2.365       .  S
Zr2236     O2248   2.309       .  S
H2247      O2248   0.962       .  S
H2249      O2250   0.963       .  S
O2251     Zr3115   2.515   1_455  S
O2252     Zr3114   2.458   1_545  S
O2252      C2263   1.293       .  A
O2253     Zr2259   2.512   1_565  S
O2253      C3092   1.312       .  A
O2254     Zr2259   2.459       .  S
O2254      C2265   1.294       .  A
O2255     Zr2289   2.463       .  S
O2255      C2265   1.301       .  A
O2256     Zr2288   2.375       .  S
O2256      C2264   1.279       .  A
O2257     Zr2259   2.468       .  S
O2257      C2263   1.302       .  A
O2258     Zr2259   2.386       .  S
O2258      C2262   1.281       .  A
Zr2259     O2260   2.332       .  S
Zr2259     O3089   2.338   1_545  S
Zr2259     O2269   2.365       .  S
Zr2259     O3095   2.310   1_545  S
O2260     Zr3114   2.354   1_545  S
O2260     Zr2289   2.316       .  S
O2261     Zr3087   2.338       .  S
O2261     Zr2288   2.338       .  S
C2264      O3081   1.312       .  A
H2266      O2267   0.962       .  S
O2267     Zr3087   2.310       .  S
O2267     Zr2286   2.345       .  S
O2267     Zr2288   2.365       .  S
H2268      O2269   0.962       .  S
O2269     Zr2289   2.348       .  S
O2270     Zr2286   2.500       .  S
O2270      C2293   1.309       .  A
O2271     Zr2287   2.467       .  S
O2271      C2294   1.295       .  A
O2272     Zr2288   2.467       .  S
O2272      C2295   1.295       .  A
O2273     Zr2289   2.501       .  S
O2273      C2296   1.309       .  A
O2274      C2297   1.293       .  A
O2275      C2298   1.310       .  A
O2276     Zr2290   2.458       .  S
O2276      C2299   1.293       .  A
O2277     Zr2290   2.498       .  S
O2277      C2300   1.308       .  A
O2278      C2299   1.299       .  A
O2279      C3128   1.284       .  A
O2280     Zr2286   2.471       .  S
O2280      C2295   1.302       .  A
O2281     Zr2287   2.385       .  S
O2281      C2298   1.281       .  A
O2282     Zr3115   2.465       .  S
O2282      C2297   1.301       .  A
O2283     Zr3114   2.397   1_545  S
O2283      C2296   1.283       .  A
O2284     Zr2290   2.389       .  S
O2285     Zr2290   2.466       .  S
O2285      C2294   1.301       .  A
Zr2286     O3080   2.458       .  S
Zr2286     O3111   2.397       .  S
Zr2286     O3088   2.354       .  S
Zr2286     O2292   2.316       .  S
Zr2286     O2304   2.349       .  S
Zr2287     O3079   2.515   1_655  S
Zr2287     O3110   2.465       .  S
Zr2287     O2291   2.334       .  S
Zr2287     O2302   2.366       .  S
Zr2288     O2292   2.332       .  S
Zr2289     O3132   2.344   1_545  S
Zr2290     O2291   2.313       .  S
Zr2290     O2302   2.346       .  S
C2300      C2714   1.488       .  S
C2300      O3107   1.284       .  A
H2301      O2302   0.962       .  S
H2303      O2304   0.965       .  S
O2304     Zr3117   2.344       .  S
C2305      C2306   1.393       .  A
C2305      C2310   1.385       .  A
C2305      H2312   1.084       .  S
C2306      C2307   1.412       .  A
C2307      C2308   1.386       .  A
C2307     Br2314   1.924       .  S
C2308      C2309   1.393       .  A
C2308      H2313   1.084       .  S
C2309      C2310   1.412       .  A
C2310     Br2311   1.921       .  S
C2315      C2316   1.407       .  A
C2315      C2320   1.387       .  A
C2315      H2322   1.084       .  S
C2316      C2317   1.401   1_554  A
C2317      C2318   1.388       .  A
C2317     Br2324   1.920       .  S
C2318      C2319   1.408   1_556  A
C2319      C2320   1.402       .  A
C2320     Br2321   1.921       .  S
C2325      C2326   1.405       .  A
C2325      C2330   1.385       .  A
C2325      H2332   1.084       .  S
C2326      C2327   1.400       .  A
C2327      C2328   1.386       .  A
C2327     Br2334   1.920       .  S
C2328      C2329   1.405       .  A
C2328      H2333   1.084       .  S
C2329      C2330   1.399       .  A
C2330     Br2331   1.920   1_655  S
C2335      C3164   1.393       .  A
C2335      C2340   1.385       .  A
C2335      H2342   1.084       .  S
C2336      C3163   1.393       .  A
C2336      C2337   1.413   1_545  A
C2337      C3166   1.387       .  A
C2337     Br2344   1.924       .  S
C2338      C3165   1.387       .  A
C2338      C2339   1.394       .  A
C2338      H2343   1.084       .  S
C2339      C2340   1.414       .  A
C2340     Br2341   1.922       .  S
C2345      C2346   1.393       .  A
C2345      C2350   1.385       .  A
C2345      H2352   1.084       .  S
C2346      C2347   1.412       .  A
C2347      C2348   1.385       .  A
C2347     Br2354   1.920       .  S
C2348      C2349   1.393       .  A
C2348      H2353   1.084       .  S
C2349      C2732   1.452   1_545  S
C2349      C2350   1.412       .  A
C2350     Br2351   1.921       .  S
C2355      C2356   1.401       .  A
C2355      C2360   1.390       .  A
C2355      H2362   1.084       .  S
C2356      C2357   1.406       .  A
C2357      C2358   1.389       .  A
C2357     Br2364   1.921       .  S
C2358      C2359   1.401       .  A
C2358      H2363   1.084       .  S
C2359      C2360   1.406       .  A
C2360     Br2361   1.921       .  S
C2365      C2366   1.394       .  A
C2365      C2370   1.386       .  A
C2365      H2372   1.084       .  S
C2366      C2694   1.453   1_545  S
C2366      C2367   1.412       .  A
C2367      C2368   1.387       .  A
C2367     Br2374   1.924       .  S
C2368      C2369   1.395       .  A
C2368      H2373   1.084       .  S
C2369      C2370   1.412       .  A
C2370     Br2371   1.924       .  S
C2375      C2376   1.401       .  A
C2375      C2380   1.387       .  A
C2375      H2382   1.084       .  S
C2376      C2377   1.406       .  A
C2377      C2378   1.390       .  A
C2377     Br2384   1.921       .  S
C2378      C2379   1.401       .  A
C2378      H2383   1.084       .  S
C2379      C2380   1.405       .  A
C2380     Br2381   1.921       .  S
C2385      C3214   1.401       .  A
C2385      C2390   1.389       .  A
C2385      H2392   1.084       .  S
C2386      C3213   1.401   1_545  A
C2386      C2387   1.405       .  A
C2387      C2388   1.390       .  A
C2387     Br2394   1.920       .  S
C2388      C3217   1.401   1_545  A
C2388      H2393   1.084       .  S
C2389      C3216   1.401       .  A
C2389      C2390   1.405       .  A
C2390     Br2391   1.921       .  S
C2395      C2396   1.397       .  A
C2395      C2400   1.389       .  A
C2395      H2402   1.084       .  S
C2396      C2397   1.407       .  A
C2397      C2398   1.388       .  A
C2397     Br2404   1.919       .  S
C2398      C2399   1.396       .  A
C2398      H2403   1.084       .  S
C2399      C2400   1.407       .  A
C2400     Br2401   1.919       .  S
C2405      C2406   1.397       .  A
C2405      C2410   1.389       .  A
C2405      H2412   1.084       .  S
C2406      C2407   1.407       .  A
C2407      C2408   1.389       .  A
C2407     Br2414   1.919       .  S
C2408      C2409   1.397       .  A
C2408      H2413   1.084       .  S
C2409      C2410   1.407       .  A
C2415      C2416   1.407       .  A
C2415      C2420   1.387       .  A
C2415      H2422   1.084       .  S
C2416      C2417   1.400       .  A
C2417      C2418   1.386       .  A
C2417     Br2424   1.920       .  S
C2418      C2419   1.407       .  A
C2418      H2423   1.084       .  S
C2419      C2420   1.401       .  A
C2420     Br2421   1.920       .  S
C2425      C2426   1.411       .  A
C2425      C2430   1.392       .  A
C2425      H2432   1.079       .  S
C2426      C2427   1.428       .  A
C2427      C2428   1.385       .  A
C2427     Br2434   1.925       .  S
C2428      C2429   1.393       .  A
C2428      H2433   1.083       .  S
C2429      C2430   1.402       .  A
C2430     Br2431   1.914       .  S
C2435      C2436   1.394       .  A
C2435      C2440   1.388       .  A
C2435      H2442   1.084       .  S
C2436      C2437   1.412       .  A
C2437      C2438   1.384       .  A
C2437     Br2444   1.917       .  S
C2438      C2439   1.392       .  A
C2438      H2443   1.084       .  S
C2439      C2440   1.413       .  A
C2440     Br2441   1.923       .  S
C2445      C2446   1.394       .  A
C2445      C2450   1.387       .  A
C2445      H2452   1.084       .  S
C2446      C2447   1.409   1_554  A
C2447      C2448   1.386   1_556  A
C2447     Br2454   1.919       .  S
C2448      C2449   1.393       .  A
C2448      H2453   1.084   1_554  S
C2449      C2450   1.409       .  A
C2450     Br2451   1.922       .  S
C2455      C2456   1.395       .  A
C2455      H2462   1.084       .  S
C2457      C2458   1.384       .  A
C2457     Br2464   1.913       .  S
C2458      C2459   1.393       .  A
C2458      H2463   1.084       .  S
C2459      C2460   1.408       .  A
C2465      C2466   1.395       .  A
C2465      C2470   1.388       .  A
C2465      H2472   1.084       .  S
C2466      C2467   1.415       .  A
C2467      C2468   1.384       .  A
C2467     Br2474   1.923       .  S
C2468      C2469   1.393       .  A
C2468      H2473   1.084       .  S
C2469      C2470   1.414       .  A
C2470     Br2471   1.924       .  S
C2475      C2476   1.401       .  A
C2475      C2480   1.389       .  A
C2475      H2482   1.084       .  S
C2476      C2477   1.404       .  A
C2477      C2478   1.389       .  A
C2477     Br2484   1.920       .  S
C2478      C2479   1.402       .  A
C2478      H2483   1.084       .  S
C2479      C2480   1.404       .  A
C2480     Br2481   1.921       .  S
C2485      C2982   1.504   1_545  S
C2486      C2487   1.390       .  A
C2487      C3307   1.454       .  S
C2487      C2488   1.382       .  A
C2488      C2489   1.390       .  A
C2488      H2492   1.085       .  S
C2489      C2820   1.489       .  S
C2489      C2490   1.429       .  A
C2490      H2493   1.082       .  S
C2494      C3013   1.505       .  S
C2494      C2495   1.408       .  A
C2494      C2499   1.428       .  A
C2495      C2496   1.392       .  A
C2495      H2500   1.084       .  S
C2496      C2497   1.384       .  A
C2497      C2498   1.387       .  A
C2498      C3090   1.487       .  S
C2498      C2499   1.429       .  A
C2499      H2502   1.083       .  S
C2503      C2504   1.407       .  A
C2503      C2508   1.428       .  A
C2504      C2505   1.391       .  A
C2504      H2509   1.084       .  S
C2505      C3297   1.456       .  S
C2505      C2506   1.376       .  A
C2506      C2507   1.387       .  A
C2506      H2510   1.085       .  S
C2507      C3018   1.481       .  S
C2507      C2508   1.427       .  A
C2508      H2511   1.083       .  S
C2512      C2858   1.503       .  S
C2512      C2513   1.410       .  A
C2512      C2517   1.427       .  A
C2513      C2514   1.394       .  A
C2513      H2518   1.083       .  S
C2514      C3294   1.457       .  S
C2514      C2515   1.378       .  A
C2515      C2516   1.383       .  A
C2515      H2519   1.086       .  S
C2516      C2874   1.479       .  S
C2516      C2517   1.427       .  A
C2517      H2520   1.083       .  S
C2521      C3127   1.499       .  S
C2521      C2522   1.407       .  A
C2521      C2526   1.427       .  A
C2522      C2523   1.387       .  A
C2522      H2527   1.084       .  S
C2523      C3284   1.446       .  S
C2523      C2524   1.378       .  A
C2524      C2525   1.388       .  A
C2524      H2528   1.086       .  S
C2525      C2928   1.482       .  S
C2525      C2526   1.427       .  A
C2526      H2529   1.082       .  S
C2530      C3093   1.497       .  S
C2530      C2531   1.426       .  A
C2530      C2535   1.407       .  A
C2531      C2532   1.428       .  A
C2531      H2536   1.083       .  S
C2532      C3016   1.482       .  S
C2532      C2533   1.387       .  A
C2533      C2534   1.378       .  A
C2533      H2537   1.085       .  S
C2534      C3287   1.444       .  S
C2534      C2535   1.387       .  A
C2535      H2538   1.084       .  S
C2539      C2877   1.503   1_556  S
C2539      C2540   1.409   1_556  A
C2539      C2544   1.428       .  A
C2540      C2541   1.390   1_554  A
C2540      H2545   1.084       .  S
C2541      C3274   1.449   1_556  S
C2541      C2542   1.379       .  A
C2542      C2543   1.385       .  A
C2542      H2546   1.085       .  S
C2543      C2851   1.484       .  S
C2543      C2544   1.430       .  A
C2544      H2547   1.083       .  S
C2548      C2911   1.503       .  S
C2548      C2549   1.407       .  A
C2548      C2553   1.431       .  A
C2549      C2550   1.388       .  A
C2549      H2554   1.084       .  S
C2550      C3277   1.447       .  S
C2550      C2551   1.377       .  A
C2551      C2552   1.387       .  A
C2551      H2555   1.086       .  S
C2552      C3036   1.486       .  S
C2552      C2553   1.430       .  A
C2553      H2556   1.082       .  S
C2557      C2930   1.501       .  S
C2557      C2558   1.409       .  A
C2557      C2562   1.428       .  A
C2558      H2563   1.084       .  S
C2559      C3264   1.454       .  S
C2559      C2560   1.377       .  A
C2560      H2564   1.086       .  S
C2561      C2562   1.426       .  A
C2562      H2565   1.082       .  S
C2566      C3067   1.484       .  S
C2566      C2567   1.385       .  A
C2566      C2571   1.430       .  A
C2567      C2568   1.377       .  A
C2567      H2572   1.085       .  S
C2568      C3267   1.452       .  S
C2568      C2569   1.391       .  A
C2569      C2570   1.407       .  A
C2569      H2573   1.084       .  S
C2570      C2571   1.429       .  A
C2571      H2574   1.082       .  S
C2575      C3038   1.500       .  S
C2575      C2576   1.415       .  A
C2575      C2580   1.423       .  A
C2576      C2577   1.410       .  A
C2576      H2581   1.079       .  S
C2577      C3254   1.502       .  S
C2577      C2578   1.384       .  A
C2578      C2579   1.383       .  A
C2578      H2582   1.072       .  S
C2579      C2905   1.482       .  S
C2579      C2580   1.420       .  A
C2580      H2583   1.083       .  S
C2584      C3074   1.503   1_545  S
C2585      C2586   1.397       .  A
C2586      C3257   1.467       .  S
C2586      C2587   1.392       .  A
C2587      C2588   1.386       .  A
C2587      H2591   1.083       .  S
C2588      C2959   1.490       .  S
C2588      C2589   1.428       .  A
C2589      H2592   1.083       .  S
C2593      C2594   1.428       .  A
C2593      C2598   1.407       .  A
C2594      C2595   1.426       .  A
C2594      H2599   1.082       .  S
C2595      C3014   1.483       .  S
C2595      C2596   1.386       .  A
C2596      C2597   1.380       .  A
C2596      H2600   1.086       .  S
C2597      C3244   1.456       .  S
C2597      C2598   1.391       .  A
C2598      H2601   1.083       .  S
C2602      C2821   1.502       .  S
C2602      C2603   1.408       .  A
C2602      C2607   1.427       .  A
C2603      H2608   1.083       .  S
C2604      C3247   1.457       .  S
C2604      C2605   1.382       .  A
C2605      H2609   1.085       .  S
C2606      C2607   1.428       .  A
C2607      H2610   1.083       .  S
C2611      C2984   1.502       .  S
C2611      C2612   1.408       .  A
C2611      C2616   1.427       .  A
C2612      C2613   1.391       .  A
C2612      H2617   1.084       .  S
C2613      C3234   1.450       .  S
C2613      C2614   1.381       .  A
C2614      C2615   1.388       .  A
C2614      H2618   1.085       .  S
C2615      C3126   1.485       .  S
C2615      C2616   1.429       .  A
C2616      H2619   1.083       .  S
C2620      C3020   1.500       .  S
C2620      C2621   1.408       .  A
C2621      H2626   1.084       .  S
C2622      C3237   1.451       .  S
C2622      C2623   1.379       .  A
C2623      C2624   1.390       .  A
C2623      H2627   1.085       .  S
C2624      C2855   1.484       .  S
C2624      C2625   1.427       .  A
C2629      C3091   1.504       .  S
C2629      C2630   1.431       .  A
C2629      C2634   1.406       .  A
C2630      C2631   1.430       .  A
C2630      H2635   1.082       .  S
C2631      C2931   1.489       .  S
C2631      C2632   1.389       .  A
C2632      C2633   1.380       .  A
C2632      H2636   1.085       .  S
C2633      C3224   1.450       .  S
C2633      C2634   1.389       .  A
C2634      H2637   1.084       .  S
C2638      C3122   1.503       .  S
C2638      C2639   1.428       .  A
C2638      C2643   1.407       .  A
C2639      C2640   1.430       .  A
C2639      H2644   1.083       .  S
C2640      C2983   1.486       .  S
C2640      C2641   1.387       .  A
C2641      C2642   1.381       .  A
C2641      H2645   1.085       .  S
C2642      C3227   1.449       .  S
C2642      C2643   1.390       .  A
C2643      H2646   1.084       .  S
C2647      C2907   1.506   1_556  S
C2647      C2648   1.409   1_556  A
C2647      C2652   1.428       .  A
C2648      C2649   1.394       .  A
C2648      H2653   1.084       .  S
C2649      C3214   1.455       .  S
C2649      C2650   1.384   1_554  A
C2650      C2651   1.387       .  A
C2650      H2654   1.085       .  S
C2651      C2853   1.487       .  S
C2651      C2652   1.429       .  A
C2652      H2655   1.083       .  S
C2656      C2909   1.502       .  S
C2656      C2657   1.429       .  A
C2656      C2661   1.408       .  A
C2657      C2658   1.428       .  A
C2657      H2662   1.082       .  S
C2658      C3071   1.488       .  S
C2658      C2659   1.389       .  A
C2659      C2660   1.382       .  A
C2659      H2663   1.085       .  S
C2660      C3217   1.455       .  S
C2660      C2661   1.391       .  A
C2661      H2664   1.084       .  S
C2665      C2962   1.503       .  S
C2665      C2666   1.407       .  A
C2665      C2670   1.429       .  A
C2666      C2667   1.391       .  A
C2666      H2671   1.084       .  S
C2667      C3204   1.455       .  S
C2667      C2668   1.382       .  A
C2668      C2669   1.388       .  A
C2668      H2672   1.085       .  S
C2669      C3124   1.486       .  S
C2669      C2670   1.428       .  A
C2670      H2673   1.082       .  S
C2674      C2675   1.429       .  A
C2674      C2679   1.408       .  A
C2675      C2676   1.430       .  A
C2675      H2680   1.083       .  S
C2676      C3069   1.487       .  S
C2676      C2677   1.386       .  A
C2677      C2678   1.382       .  A
C2677      H2681   1.085       .  S
C2678      C3207   1.453       .  S
C2678      C2679   1.391       .  A
C2679      H2682   1.084       .  S
C2683      C2965   1.487       .  S
C2683      C2684   1.385       .  A
C2683      C2688   1.431       .  A
C2684      C2685   1.379       .  A
C2684      H2689   1.085       .  S
C2685      C3197   1.453       .  S
C2685      C2686   1.391       .  A
C2687      C3037   1.506       .  S
C2692      C3068   1.498       .  S
C2692      C2693   1.408       .  A
C2692      C2697   1.428       .  A
C2693      C2694   1.390       .  A
C2693      H2698   1.084       .  S
C2694      C2695   1.377       .  A
C2695      C2696   1.387       .  A
C2696      C2912   1.481       .  S
C2696      C2697   1.425       .  A
C2697      H2700   1.083       .  S
C2701      C2929   1.503       .  S
C2701      C2702   1.409       .  A
C2701      C2706   1.427       .  A
C2702      C2703   1.393       .  A
C2702      H2707   1.083       .  S
C2703      C3184   1.455       .  S
C2703      C2704   1.383       .  A
C2704      C2705   1.387       .  A
C2704      H2708   1.085       .  S
C2705      C3073   1.485       .  S
C2705      C2706   1.427       .  A
C2706      H2709   1.083       .  S
C2710      C2960   1.502       .  S
C2710      C2711   1.407       .  A
C2710      C2715   1.429       .  A
C2711      H2716   1.084       .  S
C2712      C3187   1.456       .  S
C2712      C2713   1.382       .  A
C2713      H2717   1.085       .  S
C2714      C2715   1.428       .  A
C2715      H2718   1.082       .  S
C2719      C3015   1.500       .  S
C2719      C2720   1.429       .  A
C2719      C2724   1.407       .  A
C2720      C2721   1.427       .  A
C2720      H2725   1.082       .  S
C2721      C2823   1.481       .  S
C2721      C2722   1.385       .  A
C2722      C2723   1.375       .  A
C2722      H2726   1.086       .  S
C2723      C3174   1.451       .  S
C2723      C2724   1.390       .  A
C2724      H2727   1.084       .  S
C2728      C3017   1.502       .  S
C2728      C2729   1.428       .  A
C2728      C2733   1.408       .  A
C2729      C2730   1.430       .  A
C2729      H2734   1.083       .  S
C2730      C3092   1.482       .  S
C2730      C2731   1.383       .  A
C2731      C2732   1.377       .  A
C2732      C2733   1.391       .  A
C2733      H2736   1.084       .  S
C2737      C3125   1.501       .  S
C2737      C2738   1.407       .  A
C2737      C2742   1.429       .  A
C2738      C2739   1.391       .  A
C2738      H2743   1.084       .  S
C2739      C3164   1.453       .  S
C2739      C2740   1.376       .  A
C2740      C2741   1.386       .  A
C2740      H2744   1.086       .  S
C2741      C2963   1.482       .  S
C2741      C2742   1.427       .  A
C2742      H2745   1.082       .  S
C2746      C3123   1.504       .  S
C2746      C2747   1.429       .  A
C2746      C2751   1.409       .  A
C2747      C2748   1.430       .  A
C2747      H2752   1.083       .  S
C2748      C2985   1.484       .  S
C2748      C2749   1.384       .  A
C2749      C2750   1.378       .  A
C2749      H2753   1.085       .  S
C2750      C3167   1.454       .  S
C2750      C2751   1.392       .  A
C2751      H2754   1.084       .  S
C2755      C3072   1.495       .  S
C2755      C2756   1.406       .  A
C2755      C2760   1.427       .  A
C2756      C2757   1.390       .  A
C2756      H2761   1.083       .  S
C2757      C3154   1.451       .  S
C2757      C2758   1.380       .  A
C2758      C2759   1.385       .  A
C2758      H2762   1.085       .  S
C2759      C2961   1.480       .  S
C2759      C2760   1.426       .  A
C2760      H2763   1.083       .  S
C2764      C3070   1.500       .  S
C2764      C2765   1.407       .  A
C2764      C2769   1.429       .  A
C2765      C2766   1.389       .  A
C2765      H2770   1.084       .  S
C2766      C2767   1.378       .  A
C2767      C2768   1.385       .  A
C2767      H2771   1.086       .  S
C2768      C2908   1.482       .  S
C2768      C2769   1.427       .  A
C2769      H2772   1.082       .  S
C2773      C2906   1.502   1_556  S
C2773      C2774   1.409   1_556  A
C2773      C2778   1.426       .  A
C2774      C2775   1.393   1_554  A
C2774      H2779   1.083       .  S
C2775      C2776   1.382       .  A
C2776      C2777   1.386       .  A
C2776      H2780   1.085       .  S
C2777      C2857   1.484       .  S
C2777      C2778   1.428       .  A
C2778      H2781   1.083       .  S
C2782      C2875   1.500       .  S
C2782      C2783   1.427       .  A
C2782      C2787   1.409       .  A
C2783      C2784   1.425       .  A
C2783      H2788   1.082       .  S
C2784      C3039   1.481       .  S
C2784      C2785   1.387       .  A
C2785      C2786   1.381       .  A
C2785      H2789   1.086       .  S
C2786      C3144   1.459       .  S
C2786      C2787   1.393       .  A
C2787      H2790   1.083       .  S
C2791      C2854   1.501       .  S
C2791      C2792   1.407       .  A
C2791      C2796   1.430       .  A
C2792      C2793   1.390       .  A
C2792      H2797   1.084       .  S
C2793      C3137   1.450       .  S
C2793      C2794   1.376       .  A
C2794      C2795   1.385       .  A
C2794      H2798   1.086       .  S
C2795      C3019   1.482       .  S
C2795      C2796   1.428       .  A
C2796      H2799   1.082       .  S
C2800      C2856   1.502       .  S
C2800      C2801   1.408       .  A
C2800      C2805   1.428       .  A
C2801      H2806   1.084       .  S
C2802      C3134   1.450       .  S
C2802      C2803   1.377       .  A
C2803      H2807   1.085       .  S
C2804      C2805   1.430       .  A
C2805      H2808   1.083       .  S
O2809     Zr2845   2.502       .  S
O2809      C2820   1.309       .  A
O2810     Zr2844   2.463       .  S
O2810      C2821   1.295       .  A
O2811     Zr2817   2.455       .  S
O2811      C2822   1.293       .  A
O2812     Zr2817   2.498       .  S
O2812      C2823   1.309       .  A
O2813     Zr2847   2.388       .  S
O2813      C2823   1.281       .  A
O2814     Zr2846   2.464       .  S
O2814      C2822   1.301       .  A
O2815     Zr2817   2.468       .  S
O2815      C2821   1.302       .  A
O2816     Zr2817   2.402       .  S
O2816      C2820   1.284       .  A
Zr2817     O2818   2.314       .  S
Zr2817     O2819   2.353       .  S
Zr2817     O2827   2.346       .  S
Zr2817     O2825   2.348       .  S
O2818     Zr2844   2.332       .  S
O2818     Zr2847   2.354       .  S
O2819     Zr2845   2.314       .  S
O2819     Zr2846   2.333       .  S
H2824      O2825   0.962       .  S
O2825     Zr2844   2.365       .  S
O2825     Zr2846   2.313       .  S
H2826      O2827   0.965       .  S
O2827     Zr2845   2.346       .  S
O2827     Zr2847   2.349       .  S
O2828     Zr2844   2.512       .  S
O2828      C2851   1.311       .  A
O2829     Zr2845   2.455       .  S
O2829      C2852   1.293       .  A
O2830     Zr2846   2.517       .  S
O2830      C2853   1.312       .  A
O2831     Zr2847   2.456       .  S
O2831      C2854   1.292       .  A
O2832     Zr2847   2.494       .  S
O2832      C2855   1.307       .  A
O2833     Zr2846   2.466       .  S
O2833      C2856   1.295       .  A
O2834     Zr2848   2.511       .  S
O2834      C2857   1.311       .  A
O2835     Zr2848   2.470       .  S
O2835      C2858   1.296       .  A
O2836     Zr2846   2.380       .  S
O2836      C2857   1.280       .  A
O2837     Zr2847   2.464       .  S
O2837      C2858   1.300       .  A
O2838     Zr2844   2.384       .  S
O2838      C2853   1.281       .  A
O2839     Zr2845   2.469       .  S
O2839      C2856   1.302       .  A
O2840     Zr2845   2.398       .  S
O2840      C2855   1.283       .  A
O2841     Zr2844   2.463       .  S
O2841      C2854   1.301       .  A
O2842     Zr2848   2.379       .  S
O2842      C2851   1.280       .  A
O2843     Zr2848   2.462       .  S
O2843      C2852   1.300       .  A
Zr2844     O2850   2.338       .  S
Zr2844     O2862   2.314       .  S
Zr2845     O2849   2.357       .  S
Zr2845     O2860   2.348       .  S
Zr2846     O2850   2.339       .  S
Zr2846     O2860   2.367       .  S
Zr2847     O2849   2.314       .  S
Zr2847     O2862   2.343       .  S
Zr2848     O2849   2.332       .  S
Zr2848     O2850   2.339       .  S
Zr2848     O2862   2.364       .  S
Zr2848     O2860   2.313       .  S
H2859      O2860   0.962       .  S
H2861      O2862   0.962       .  S
O2863     Zr2899   2.519       .  S
O2863      C2874   1.313       .  A
O2864     Zr2898   2.459   1_565  S
O2864      C2875   1.293       .  A
O2865     Zr2871   2.516       .  S
O2865      C2876   1.312   1_565  A
O2866      C2877   1.296   1_556  A
O2867     Zr2901   2.463       .  S
O2867      C2877   1.300       .  A
O2868     Zr2900   2.375       .  S
O2869     Zr2871   2.456   1_554  S
O2869      C2875   1.299       .  A
O2870      C2874   1.277   1_455  A
Zr2871     O2872   2.329   1_556  S
Zr2871     O2873   2.337       .  S
Zr2871     O2879   2.312   1_565  S
O2872     Zr2898   2.354   1_565  S
H2878      O2879   0.962       .  S
O2879     Zr2898   2.344   1_556  S
H2880      O2881   0.962       .  S
O2881     Zr2899   2.311       .  S
O2881     Zr2901   2.346   1_556  S
O2882      C2905   1.310       .  A
O2883      C2906   1.296   1_556  A
O2884     Zr2900   2.471       .  S
O2884      C2907   1.296   1_556  A
O2885     Zr2901   2.498   1_455  S
O2886     Zr2901   2.461       .  S
O2886      C2909   1.294       .  A
O2887     Zr2900   2.517       .  S
O2887      C2910   1.313       .  A
O2888     Zr2902   2.460       .  S
O2888      C2911   1.293       .  A
O2890     Zr2900   2.462   1_554  S
O2890      C2911   1.301       .  A
O2891     Zr2901   2.394       .  S
O2891      C2912   1.283       .  A
O2892      C2907   1.302       .  A
O2894     Zr2899   2.462   1_554  S
O2894      C2909   1.300       .  A
O2895     Zr2898   2.387   1_565  S
O2895      C2908   1.280       .  A
O2896     Zr2902   2.389       .  S
O2896      C2905   1.281       .  A
O2897      C2906   1.300       .  A
Zr2898     O2916   2.345   1_545  S
Zr2899     O2903   2.330   1_556  S
Zr2900     O2904   2.332   1_556  S
Zr2900     O2914   2.311       .  S
Zr2901     O2903   2.355       .  S
Zr2902     O2904   2.356       .  S
Zr2902     O2914   2.342   1_554  S
H2913      O2914   0.962       .  S
H2915      O2916   0.965       .  S
O2917     Zr2953   2.497       .  S
O2917      C2928   1.308       .  A
O2918     Zr2952   2.468       .  S
O2918      C2929   1.296       .  A
O2919     Zr2925   2.459       .  S
O2919      C2930   1.293       .  A
O2920     Zr2925   2.504       .  S
O2920      C2931   1.309       .  A
O2921     Zr2955   2.400       .  S
O2921      C2931   1.284       .  A
O2922     Zr2954   2.461       .  S
O2922      C2930   1.300       .  A
O2923     Zr2925   2.466       .  S
O2923      C2929   1.301       .  A
O2924     Zr2925   2.393       .  S
O2924      C2928   1.283       .  A
Zr2925     O2926   2.317       .  S
Zr2925     O2927   2.357       .  S
Zr2925     O2935   2.345       .  S
Zr2925     O2933   2.345       .  S
O2926     Zr2952   2.336       .  S
O2926     Zr2955   2.355       .  S
O2927     Zr2953   2.313       .  S
O2927     Zr2954   2.330       .  S
H2932      O2933   0.962       .  S
O2933     Zr2952   2.367       .  S
O2933     Zr2954   2.315       .  S
H2934      O2935   0.965       .  S
O2935     Zr2953   2.350       .  S
O2935     Zr2955   2.348       .  S
O2936     Zr2952   2.522       .  S
O2936      C2959   1.313       .  A
O2937     Zr2953   2.457       .  S
O2937      C2960   1.293       .  A
O2938     Zr2954   2.499       .  S
O2938      C2961   1.309       .  A
O2939     Zr2955   2.461       .  S
O2939      C2962   1.294       .  A
O2940     Zr2955   2.499       .  S
O2940      C2963   1.309       .  A
O2941     Zr2954   2.468       .  S
O2941      C2964   1.295       .  A
O2942     Zr2956   2.516       .  S
O2942      C2965   1.312       .  A
O2943     Zr2956   2.460       .  S
O2943      C2966   1.294       .  A
O2944     Zr2954   2.382       .  S
O2944      C2965   1.280       .  A
O2945     Zr2955   2.474       .  S
O2945      C2966   1.303       .  A
O2946     Zr2952   2.385       .  S
O2946      C2961   1.281       .  A
O2947     Zr2953   2.468       .  S
O2947      C2964   1.301       .  A
O2948     Zr2953   2.389       .  S
O2948      C2963   1.281       .  A
O2949     Zr2952   2.462       .  S
O2949      C2962   1.300       .  A
O2950     Zr2956   2.386       .  S
O2950      C2959   1.282       .  A
O2951     Zr2956   2.464       .  S
O2951      C2960   1.301       .  A
Zr2952     O2958   2.344       .  S
Zr2952     O2970   2.311       .  S
Zr2953     O2957   2.356       .  S
Zr2953     O2968   2.344       .  S
Zr2954     O2958   2.345       .  S
Zr2954     O2968   2.362       .  S
Zr2955     O2957   2.317       .  S
Zr2955     O2970   2.344       .  S
Zr2956     O2957   2.334       .  S
Zr2956     O2958   2.339       .  S
Zr2956     O2970   2.363       .  S
Zr2956     O2968   2.311       .  S
H2967      O2968   0.962       .  S
H2969      O2970   0.962       .  S
O2971     Zr3007   2.460       .  S
O2971      C2982   1.294       .  A
O2972     Zr3006   2.514       .  S
O2972      C2983   1.312       .  A
O2973     Zr2979   2.469       .  S
O2973      C2984   1.296       .  A
O2974     Zr2979   2.515       .  S
O2974      C2985   1.312       .  A
O2975     Zr3009   2.376       .  S
O2975      C2985   1.279       .  A
O2976     Zr3008   2.463       .  S
O2976      C2984   1.300       .  A
O2977     Zr2979   2.383       .  S
O2977      C2983   1.281       .  A
O2978     Zr2979   2.466       .  S
O2978      C2982   1.302       .  A
Zr2979     O2980   2.339       .  S
Zr2979     O2981   2.332       .  S
Zr2979     O2989   2.313       .  S
Zr2979     O2987   2.365       .  S
O2980     Zr3006   2.339       .  S
O2980     Zr3009   2.339       .  S
O2981     Zr3007   2.356       .  S
O2981     Zr3008   2.312       .  S
H2986      O2987   0.962       .  S
O2987     Zr3006   2.315       .  S
O2987     Zr3008   2.344       .  S
H2988      O2989   0.962       .  S
O2989     Zr3007   2.345       .  S
O2989     Zr3009   2.363       .  S
O2990     Zr3006   2.469       .  S
O2990      C3013   1.296       .  A
O2991     Zr3007   2.502       .  S
O2991      C3014   1.309       .  A
O2992     Zr3008   2.456       .  S
O2992      C3015   1.292       .  A
O2993     Zr3009   2.500       .  S
O2993      C3016   1.309       .  A
O2994     Zr3009   2.464       .  S
O2994      C3017   1.294       .  A
O2995     Zr3008   2.495       .  S
O2995      C3018   1.308       .  A
O2996     Zr3010   2.503       .  S
O2996      C3019   1.310       .  A
O2997     Zr3010   2.461       .  S
O2997      C3020   1.294       .  A
O2998     Zr3008   2.387       .  S
O2998      C3019   1.281       .  A
O2999     Zr3009   2.455       .  S
O2999      C3020   1.299       .  A
O3000     Zr3006   2.462       .  S
O3000      C3015   1.301       .  A
O3001     Zr3007   2.390       .  S
O3001      C3018   1.282       .  A
O3002     Zr3007   2.467       .  S
O3002      C3017   1.301       .  A
O3003     Zr3006   2.383       .  S
O3003      C3016   1.281       .  A
O3004     Zr3010   2.468       .  S
O3004      C3013   1.301       .  A
O3005     Zr3010   2.389       .  S
O3005      C3014   1.282       .  A
Zr3006     O3012   2.331       .  S
Zr3006     O3024   2.365       .  S
Zr3007     O3011   2.315       .  S
Zr3007     O3022   2.347       .  S
Zr3008     O3012   2.354       .  S
Zr3008     O3022   2.346       .  S
Zr3009     O3011   2.331       .  S
Zr3009     O3024   2.313       .  S
Zr3010     O3011   2.357       .  S
Zr3010     O3012   2.313       .  S
Zr3010     O3024   2.342       .  S
Zr3010     O3022   2.346       .  S
H3021      O3022   0.965       .  S
H3023      O3024   0.962       .  S
O3025     Zr3061   2.503       .  S
O3025      C3036   1.309       .  A
O3026     Zr3060   2.468       .  S
O3026      C3037   1.295       .  A
O3027     Zr3033   2.465       .  S
O3027      C3038   1.294       .  A
O3028     Zr3033   2.500       .  S
O3028      C3039   1.309       .  A
O3029     Zr3063   2.392       .  S
O3029      C3039   1.282       .  A
O3030     Zr3062   2.463       .  S
O3030      C3038   1.300       .  A
O3031     Zr3033   2.474       .  S
O3031      C3037   1.303       .  A
O3032     Zr3033   2.395       .  S
O3032      C3036   1.283       .  A
Zr3033     O3034   2.316       .  S
Zr3033     O3035   2.349       .  S
Zr3033     O3043   2.350       .  S
Zr3033     O3041   2.344       .  S
O3034     Zr3060   2.332       .  S
O3034     Zr3063   2.357       .  S
O3035     Zr3061   2.309       .  S
O3035     Zr3062   2.330       .  S
H3040      O3041   0.962       .  S
O3041     Zr3060   2.365       .  S
O3041     Zr3062   2.312       .  S
H3042      O3043   0.965       .  S
O3043     Zr3061   2.345       .  S
O3043     Zr3063   2.349       .  S
O3044     Zr3060   2.509       .  S
O3044      C3067   1.311       .  A
O3045     Zr3061   2.452       .  S
O3045      C3068   1.292       .  A
O3046     Zr3062   2.512       .  S
O3046      C3069   1.311       .  A
O3047     Zr3063   2.454       .  S
O3047      C3070   1.292       .  A
O3048     Zr3063   2.499       .  S
O3048      C3071   1.308       .  A
O3049     Zr3062   2.450       .  S
O3049      C3072   1.292       .  A
O3050     Zr3064   2.506       .  S
O3050      C3073   1.310       .  A
O3051     Zr3064   2.461       .  S
O3051      C3074   1.294       .  A
O3052     Zr3062   2.387       .  S
O3052      C3073   1.281       .  A
O3053     Zr3063   2.472       .  S
O3053      C3074   1.303       .  A
O3054     Zr3060   2.386       .  S
O3054      C3069   1.281       .  A
O3055     Zr3061   2.469       .  S
O3055      C3072   1.302       .  A
O3056     Zr3061   2.402       .  S
O3056      C3071   1.284       .  A
O3057     Zr3060   2.461       .  S
O3057      C3070   1.300       .  A
O3058     Zr3064   2.380       .  S
O3058      C3067   1.280       .  A
O3059     Zr3064   2.462       .  S
O3059      C3068   1.300       .  A
Zr3060     O3066   2.339       .  S
Zr3060     O3078   2.318       .  S
Zr3061     O3065   2.355       .  S
Zr3061     O3076   2.348       .  S
Zr3062     O3066   2.338       .  S
Zr3062     O3076   2.366       .  S
Zr3063     O3065   2.313       .  S
Zr3063     O3078   2.345       .  S
Zr3064     O3065   2.332       .  S
Zr3064     O3066   2.341       .  S
Zr3064     O3078   2.365       .  S
Zr3064     O3076   2.309       .  S
H3075      O3076   0.962       .  S
H3077      O3078   0.963       .  S
O3080      C3091   1.293       .  A
O3081     Zr3087   2.512       .  S
O3082     Zr3087   2.459       .  S
O3082      C3093   1.294       .  A
O3083     Zr3117   2.463       .  S
O3083      C3093   1.301       .  A
O3084     Zr3116   2.375       .  S
O3084      C3092   1.279       .  A
O3085     Zr3087   2.468       .  S
O3085      C3091   1.302       .  A
O3086     Zr3087   2.386       .  S
O3086      C3090   1.281       .  A
Zr3087     O3088   2.332       .  S
Zr3087     O3097   2.365       .  S
O3088     Zr3117   2.316       .  S
O3089     Zr3116   2.338       .  S
H3094      O3095   0.962       .  S
O3095     Zr3114   2.345       .  S
O3095     Zr3116   2.365       .  S
H3096      O3097   0.962       .  S
O3097     Zr3117   2.348       .  S
O3098     Zr3114   2.500       .  S
O3098      C3121   1.309       .  A
O3099     Zr3115   2.467   1_565  S
O3099      C3122   1.295       .  A
O3100     Zr3116   2.467       .  S
O3100      C3123   1.295       .  A
O3101     Zr3117   2.501       .  S
O3101      C3124   1.309       .  A
O3102      C3125   1.293       .  A
O3103      C3126   1.310       .  A
O3104     Zr3118   2.458       .  S
O3104      C3127   1.293       .  A
O3105     Zr3118   2.498       .  S
O3105      C3128   1.308   1_565  A
O3106      C3127   1.299       .  A
O3108     Zr3114   2.471       .  S
O3108      C3123   1.302       .  A
O3109     Zr3115   2.385   1_565  S
O3109      C3126   1.281       .  A
O3110      C3125   1.301       .  A
O3111      C3124   1.283       .  A
O3112     Zr3118   2.389       .  S
O3113     Zr3118   2.466       .  S
O3113      C3122   1.301       .  A
Zr3114     O3120   2.316       .  S
Zr3114     O3132   2.349       .  S
Zr3115     O3119   2.334       .  S
Zr3115     O3130   2.366   1_545  S
Zr3116     O3120   2.332       .  S
Zr3118     O3119   2.313   1_565  S
Zr3118     O3130   2.346       .  S
H3129      O3130   0.962       .  S
H3131      O3132   0.965       .  S
C3133      C3134   1.393       .  A
C3133      C3138   1.385       .  A
C3133      H3140   1.084       .  S
C3134      C3135   1.412       .  A
C3135      C3136   1.386       .  A
C3135     Br3142   1.924       .  S
C3136      C3137   1.393       .  A
C3136      H3141   1.084       .  S
C3137      C3138   1.412       .  A
C3138     Br3139   1.921       .  S
C3143      C3144   1.407       .  A
C3143      C3148   1.387       .  A
C3143      H3150   1.084       .  S
C3144      C3145   1.401   1_554  A
C3145      C3146   1.388       .  A
C3145     Br3152   1.920       .  S
C3146      C3147   1.408   1_556  A
C3147      C3148   1.402       .  A
C3148     Br3149   1.921       .  S
C3153      C3154   1.405       .  A
C3153      C3158   1.385       .  A
C3153      H3160   1.084       .  S
C3154      C3155   1.400       .  A
C3155      C3156   1.386       .  A
C3155     Br3162   1.920       .  S
C3156      C3157   1.405       .  A
C3156      H3161   1.084       .  S
C3157      C3158   1.399       .  A
C3158     Br3159   1.920   1_655  S
C3163      C3168   1.385   1_545  A
C3163      H3170   1.084       .  S
C3164      C3165   1.413       .  A
C3165     Br3172   1.924       .  S
C3166      C3167   1.394       .  A
C3166      H3171   1.084       .  S
C3167      C3168   1.414       .  A
C3168     Br3169   1.922   1_565  S
C3173      C3174   1.393       .  A
C3173      C3178   1.385       .  A
C3173      H3180   1.084       .  S
C3174      C3175   1.412       .  A
C3175      C3176   1.385       .  A
C3175     Br3182   1.920       .  S
C3176      C3177   1.393       .  A
C3176      H3181   1.084       .  S
C3177      C3178   1.412       .  A
C3178     Br3179   1.921       .  S
C3183      C3184   1.401       .  A
C3183      C3188   1.390       .  A
C3183      H3190   1.084       .  S
C3184      C3185   1.406       .  A
C3185      C3186   1.389       .  A
C3185     Br3192   1.921       .  S
C3186      C3187   1.401       .  A
C3186      H3191   1.084       .  S
C3187      C3188   1.406       .  A
C3188     Br3189   1.921       .  S
C3193      C3194   1.394       .  A
C3193      C3198   1.386       .  A
C3193      H3200   1.084       .  S
C3194      C3195   1.412       .  A
C3195      C3196   1.387       .  A
C3195     Br3202   1.924       .  S
C3196      C3197   1.395       .  A
C3196      H3201   1.084       .  S
C3197      C3198   1.412       .  A
C3198     Br3199   1.924       .  S
C3203      C3204   1.401       .  A
C3203      C3208   1.387       .  A
C3203      H3210   1.084       .  S
C3204      C3205   1.406       .  A
C3205      C3206   1.390       .  A
C3205     Br3212   1.921       .  S
C3206      C3207   1.401       .  A
C3206      H3211   1.084       .  S
C3207      C3208   1.405       .  A
C3208     Br3209   1.921       .  S
C3213      C3218   1.389       .  A
C3213      H3220   1.084       .  S
C3214      C3215   1.405       .  A
C3215      C3216   1.390       .  A
C3215     Br3222   1.920       .  S
C3216      H3221   1.084       .  S
C3217      C3218   1.405       .  A
C3218     Br3219   1.921       .  S
C3223      C3224   1.397       .  A
C3223      C3228   1.389       .  A
C3223      H3230   1.084       .  S
C3224      C3225   1.407       .  A
C3225      C3226   1.388       .  A
C3225     Br3232   1.919       .  S
C3226      C3227   1.396       .  A
C3226      H3231   1.084       .  S
C3227      C3228   1.407       .  A
C3228     Br3229   1.919       .  S
C3233      C3234   1.397       .  A
C3233      C3238   1.389       .  A
C3233      H3240   1.084       .  S
C3234      C3235   1.407       .  A
C3235      C3236   1.389       .  A
C3235     Br3242   1.919       .  S
C3236      C3237   1.397       .  A
C3236      H3241   1.084       .  S
C3237      C3238   1.407       .  A
C3243      C3244   1.407       .  A
C3243      C3248   1.387       .  A
C3243      H3250   1.084       .  S
C3244      C3245   1.400       .  A
C3245      C3246   1.386       .  A
C3245     Br3252   1.920       .  S
C3246      C3247   1.407       .  A
C3246      H3251   1.084       .  S
C3247      C3248   1.401       .  A
C3248     Br3249   1.920       .  S
C3253      C3254   1.411       .  A
C3253      C3258   1.392       .  A
C3253      H3260   1.079       .  S
C3254      C3255   1.428       .  A
C3255      C3256   1.385       .  A
C3255     Br3262   1.925       .  S
C3256      C3257   1.393       .  A
C3256      H3261   1.083       .  S
C3257      C3258   1.402       .  A
C3258     Br3259   1.914       .  S
C3263      C3264   1.394       .  A
C3263      C3268   1.388       .  A
C3263      H3270   1.084       .  S
C3264      C3265   1.412       .  A
C3265      C3266   1.384       .  A
C3265     Br3272   1.917       .  S
C3266      C3267   1.392       .  A
C3266      H3271   1.084       .  S
C3267      C3268   1.413       .  A
C3268     Br3269   1.923       .  S
C3273      C3274   1.394       .  A
C3273      C3278   1.387       .  A
C3273      H3280   1.084       .  S
C3274      C3275   1.409   1_554  A
C3275      C3276   1.386   1_556  A
C3275     Br3282   1.919       .  S
C3276      C3277   1.393       .  A
C3276      H3281   1.084   1_554  S
C3277      C3278   1.409       .  A
C3278     Br3279   1.922       .  S
C3283      C3284   1.395       .  A
C3283      H3290   1.084       .  S
C3285      C3286   1.384       .  A
C3285     Br3292   1.913       .  S
C3286      C3287   1.393       .  A
C3286      H3291   1.084       .  S
C3287      C3288   1.408       .  A
C3293      C3294   1.395       .  A
C3293      C3298   1.388       .  A
C3293      H3300   1.084       .  S
C3294      C3295   1.415       .  A
C3295      C3296   1.384       .  A
C3295     Br3302   1.923       .  S
C3296      C3297   1.393       .  A
C3296      H3301   1.084       .  S
C3297      C3298   1.414       .  A
C3298     Br3299   1.924       .  S
C3303      C3304   1.401       .  A
C3303      C3308   1.389       .  A
C3303      H3310   1.084       .  S
C3304      C3305   1.404       .  A
C3305      C3306   1.389       .  A
C3305     Br3312   1.920       .  S
C3306      C3307   1.402       .  A
C3306      H3311   1.084       .  S
C3307      C3308   1.404       .  A
C3308     Br3309   1.921       .  S
