geometry optimzed in LAMMPS
_audit_creation_date              2020-11-30 
_audit_creation_method            'lammps2cif' 
_symmetry_space_group_name_H-M    'P1' 
_symmetry_Int_Tables_number       1 
_symmetry_cell_setting            triclinic 
loop_ 
_symmetry_equiv_pos_as_xyz 
  x,y,z 
_cell_length_a                    52.08993243 
_cell_length_b                    52.01597071488477 
_cell_length_c                    26.598592315420113 
_cell_angle_alpha                 92.37934052382079 
_cell_angle_beta                  89.7350202263766 
_cell_angle_gamma                 120.10983976969061 
loop_ 
_atom_site_label 
_atom_site_type_symbol 
_atom_site_fract_x 
_atom_site_fract_y 
_atom_site_fract_z 
_atom_site_charge 
O1          O  0.31065568  0.24826961  0.03396255    -0.78700
C2          C  0.25000782  0.24838572  0.14790567     0.82400
O3          O  0.21454041  0.17410163  0.97332785    -0.79800
O4          O  0.18721796  0.24677874  0.03603602    -0.81300
O5          O  0.28421574  0.31903906  0.97881069    -0.81100
O6          O  0.32112371  0.28097046  0.97476454    -0.79700
Zn7        Zn  0.26731940  0.23053311  0.04877613     1.55700
O8          O  0.25076620  0.31019869  0.03818924    -0.81100
Cd9        Cd  0.28032575  0.27794435  0.96410762     1.59700
Cd10       Cd  0.21726705  0.21476161  0.96130688     1.59600
O11         O  0.26881817  0.26808492  0.88884530    -0.81100
O12         O  0.24923979  0.24679422  0.00642290    -1.91600
Cd13       Cd  0.23186340  0.26551349  0.05117692     1.59900
O14         O  0.22671754  0.22426594  0.88569493    -0.81000
O15         O  0.23674444  0.26004964  0.12650561    -0.79700
C16         C  0.22871858  0.16733286  0.00413386     0.82900
C17         C  0.32884846  0.26713081  0.00396466     0.82500
O18         O  0.26321962  0.23724695  0.12280610    -0.78600
C19         C  0.27027987  0.32760502  0.00804962     0.83300
O20         O  0.24829657  0.18652336  0.03478957    -0.78700
C21         C  0.24753767  0.24644678  0.86413386     0.83500
C22         C  0.16871389  0.22639709  0.00556384     0.83800
O23         O  0.17637877  0.21199078  0.97489285    -0.81200
O24         O  0.30994376  0.25441673  0.53651000    -0.78700
C25         C  0.24892359  0.25588494  0.64801099     0.82400
O26         O  0.21480767  0.18161505  0.47393480    -0.79800
O27         O  0.19041955  0.25812606  0.53015509    -0.81300
O28         O  0.28652946  0.32766711  0.47584534    -0.81100
O29         O  0.32356004  0.28784794  0.47761281    -0.79700
Zn30       Zn  0.26705522  0.23775469  0.54983189     1.55700
O31         O  0.25449771  0.31994784  0.53738647    -0.81100
Cd32       Cd  0.28322234  0.28604591  0.46432429     1.59700
Cd33       Cd  0.21906191  0.22281667  0.46247502     1.59600
O34         O  0.27321630  0.27348724  0.38874882    -0.81100
O35         O  0.25111968  0.25533687  0.50662033    -1.91600
Cd36       Cd  0.23424695  0.27508053  0.55009931     1.59900
O37         O  0.22988182  0.23093167  0.38782421    -0.81000
O38         O  0.23725815  0.26901117  0.62617705    -0.79700
C39         C  0.22908941  0.17470528  0.50405470     0.82900
C40         C  0.32917531  0.27231816  0.50670672     0.82500
O41         O  0.26109117  0.24357772  0.62306238    -0.78600
C42         C  0.27332416  0.33685260  0.50588755     0.83300
O43         O  0.24859315  0.19385026  0.53479710    -0.78700
C44         C  0.25180495  0.25129877  0.36511018     0.83500
C45         C  0.17191769  0.23753019  0.49990402     0.83800
O46         O  0.17869477  0.22109020  0.47278365    -0.81200
O47         O  0.05941266  0.24511574  0.96757815    -0.78700
C48         C  0.99893848  0.24742874  0.85742449     0.82400
O49         O  0.03763668  0.32184160  0.02823179    -0.79800
O50         O  0.43776157  0.24794291  0.96999347    -0.81300
O51         O  0.46282318  0.17581284  0.02543280    -0.81100
O52         O  0.03786649  0.21420519  0.02958119    -0.79700
Zn53       Zn  0.03462255  0.26410529  0.95574245     1.55700
O54         O  0.43893388  0.18522262  0.96623778    -0.81100
Cd55       Cd  0.00001294  0.21732462  0.04106275     1.59700
Cd56       Cd  0.00042011  0.28098615  0.04165487     1.59600
O57         O  0.49934695  0.22867727  0.11635613    -0.81100
O58         O  0.00028986  0.24831210  0.99827027    -1.91600
Cd59       Cd  0.46411595  0.22977337  0.95453421     1.59900
O60         O  0.50161039  0.27272066  0.11679036    -0.81000
O61         O  0.47418844  0.23490367  0.87958420    -0.79700
C62         C  0.05956522  0.32779928  0.99988837     0.82900
C63         C  0.05869755  0.22657178  0.99813414     0.82500
O64         O  0.02346535  0.25896505  0.88191784    -0.78600
C65         C  0.44102025  0.16726361  0.99469581     0.83300
O66         O  0.06033865  0.30768957  0.97200764    -0.78700
C67         C  0.50063927  0.25121961  0.13975040     0.83500
C68         C  0.43957807  0.26813684  0.00091799     0.83800
O69         O  0.46201907  0.28315497  0.03025944    -0.81200
O70         O  0.47715404  0.23973612  0.61574173    -0.78700
C71         C  0.43991338  0.27206612  0.50373059     0.82400
O72         O  0.46213104  0.17907410  0.46568254    -0.79800
O73         O  0.99812133  0.27380344  0.38195425    -0.81300
O74         O  0.06022793  0.31583754  0.53289250    -0.81100
O75         O  0.02633054  0.26384154  0.61812741    -0.79700
Zn76       Zn  0.46616438  0.23574399  0.54234329     1.55700
O77         O  0.03695960  0.32562049  0.47300318    -0.81100
Cd78       Cd  0.03528017  0.27102840  0.54273333     1.59700
Cd79       Cd  0.49907841  0.22055581  0.45259951     1.59600
O80         O  0.06196983  0.25453108  0.52217754    -0.81100
O81         O  0.49945522  0.25267561  0.49845924    -1.91600
Cd82       Cd  0.49890318  0.28438022  0.45825500     1.59900
O83         O  0.03852994  0.21953172  0.46104306    -0.81000
O84         O  0.46074071  0.28685074  0.47331905    -0.79700
C85         C  0.44098973  0.17292066  0.49608240     0.82900
C86         C  0.50158703  0.25074424  0.64023615     0.82500
O87         O  0.44057217  0.25321071  0.53183101    -0.78600
C88         C  0.05866717  0.33388205  0.50390591     0.83300
O89         O  0.44095287  0.19274217  0.52557192    -0.78700
C90         C  0.06111193  0.23548054  0.48973106     0.83500
C91         C  0.99660796  0.25159484  0.35694652     0.83800
O92         O  0.99632076  0.22991756  0.37828376    -0.81200
O93         O  0.31135741  0.05806644  0.97496757    -0.78700
C94         C  0.25107306  0.99840279  0.86107375     0.82400
O95         O  0.21507420  0.03568296  0.03472552    -0.79800
O96         O  0.18933967  0.43674688  0.96735794    -0.81300
O97         O  0.28497308  0.46067714  0.03290954    -0.81100
O98         O  0.32415154  0.03602159  0.03150636    -0.79700
Zn99       Zn  0.26779109  0.03309556  0.96172393     1.55700
O100        O  0.25233684  0.43643674  0.97007078    -0.81100
Cd101      Cd  0.28287311  0.99926000  0.04482190     1.59700
Cd102      Cd  0.21873734  0.99803444  0.04459899     1.59600
O103        O  0.27332850  0.00132378  0.11981549    -0.81100
O104        O  0.25095933  0.99856107  0.00178540    -1.91600
Cd105      Cd  0.23407085  0.46254269  0.95567275     1.59900
O106        O  0.22924428  0.99847725  0.11990215    -0.81000
O107        O  0.24006976  0.47321589  0.88083257    -0.79700
C108        C  0.22992051  0.05753233  0.00675114     0.82900
C109        C  0.33084989  0.05735555  0.00258517     0.82500
O110        O  0.26159967  0.02248865  0.88782354    -0.78600
C111        C  0.27121108  0.43822456  0.00235095     0.83300
O112        O  0.24996657  0.05847019  0.97810900    -0.78700
C113        C  0.25155610  0.50042367  0.14331132     0.83500
C114        C  0.17038604  0.43832684  0.99573588     0.83800
O115        O  0.17781390  0.46014056  0.02744194    -0.81200
O116        O  0.25215197  0.44547160  0.53149340    -0.78700
C117        C  0.24872376  0.50482639  0.64517515     0.82400
O118        O  0.17647801  0.46538386  0.47177328    -0.79800
O119        O  0.24744253  0.06597825  0.53751328    -0.81300
O120        O  0.32128223  0.04201751  0.47620434    -0.81100
O121        O  0.28510731  0.46709475  0.47149226    -0.79700
Zn122      Zn  0.23240087  0.46961580  0.54472583     1.55700
O123        O  0.31136515  0.06643577  0.53696590    -0.81100
Cd124      Cd  0.28067945  0.50413658  0.46069074     1.59700
Cd125      Cd  0.21727482  0.50365367  0.46107361     1.59600
O126        O  0.27056463  0.00385850  0.38545063    -0.81100
O127        O  0.24905007  0.50414258  0.50428272    -1.91600
Cd128      Cd  0.26661397  0.04045129  0.55021046     1.59900
O129        O  0.22762635  0.00336973  0.38591466    -0.81000
O130        O  0.26102406  0.03002407  0.62523124    -0.79700
C131        C  0.16985452  0.44374015  0.50002749     0.82900
C132        C  0.27202491  0.44643906  0.50233567     0.82500
O133        O  0.23722781  0.48060299  0.61862392    -0.78600
C134        C  0.32947860  0.06423234  0.50718079     0.83300
O135        O  0.18908448  0.44337156  0.52890118    -0.78700
C136        C  0.24895213  0.00340313  0.36223645     0.83500
C137        C  0.22762177  0.06379940  0.50694835     0.83800
O138        O  0.21406944  0.04165933  0.47560628    -0.81200
C139        C  0.25117934  0.00000417  0.80580563    -0.06300
C140        C  0.24412062  0.02010693  0.78492316    -0.17400
C141        C  0.24246047  0.02178591  0.73280243     0.10900
C142        C  0.24852116  0.00332036  0.70044649    -0.06200
C143        C  0.25560854  0.48325242  0.72133752    -0.17400
C144        C  0.25750889  0.48175244  0.77343091     0.10900
S145        S  0.23108905  0.04683598  0.71028554    -0.32400
S146        S  0.26998178  0.45755309  0.79593708    -0.32400
H147        H  0.28699619  0.47679968  0.83648941     0.29000
H148        H  0.21466959  0.02846025  0.66853608     0.28900
H149        H  0.23900432  0.03405225  0.80943489     0.19500
H150        H  0.26080385  0.46936592  0.69682144     0.19500
C151        C  0.25171651  0.00136885  0.19937933    -0.06300
C152        C  0.22454568  0.99131128  0.22381990    -0.17400
C153        C  0.22287684  0.99209125  0.27629551     0.10900
C154        C  0.24902079  0.00303081  0.30622687    -0.06200
C155        C  0.27622854  0.51319584  0.28184098    -0.17400
C156        C  0.27790860  0.51239973  0.22932538     0.10900
S157        S  0.18642074  0.97747348  0.30216446    -0.32400
S158        S  0.31437163  0.52678854  0.20351384    -0.32400
H159        H  0.30809465  0.49865977  0.18372789     0.29000
H160        H  0.19252936  0.00554164  0.32196487     0.28900
H161        H  0.20414976  0.98251503  0.20186032     0.19500
H162        H  0.29658776  0.52192855  0.30389564     0.19500
C163        C  0.08390820  0.36479061  0.50458682    -0.06300
C164        C  0.09445567  0.37834045  0.45855209    -0.17400
C165        C  0.12211597  0.40441028  0.45568940     0.10900
C166        C  0.13928027  0.41798337  0.50012046    -0.06200
C167        C  0.12784675  0.40531565  0.54637931    -0.17400
C168        C  0.10047580  0.37917485  0.54919590     0.10900
S169        S  0.13543533  0.41728737  0.39387151    -0.32400
S170        S  0.08816112  0.36526049  0.61095745    -0.32400
H171        H  0.05773315  0.35285271  0.59973351     0.29000
H172        H  0.16455786  0.42341003  0.40346490     0.28900
H173        H  0.08218805  0.36731627  0.42399424     0.19500
H174        H  0.14059761  0.41571537  0.58081581     0.19500
C175        C  0.36056654  0.08899658  0.50674629    -0.06300
C176        C  0.37519291  0.09642736  0.46049742    -0.17400
C177        C  0.40205831  0.12308214  0.45569799     0.10900
C178        C  0.41526535  0.14243695  0.49846572    -0.06200
C179        C  0.40169184  0.13377087  0.54531162    -0.17400
C180        C  0.37477103  0.10744400  0.55002240     0.10900
S181        S  0.41648676  0.13232898  0.39333282    -0.32400
S182        S  0.35981333  0.09900553  0.61237365    -0.32400
H183        H  0.34741784  0.06804411  0.60514492     0.29000
H184        H  0.42091854  0.16132855  0.39767393     0.28900
H185        H  0.36455781  0.08249980  0.42696142     0.19500
H186        H  0.41186818  0.14805290  0.57871002     0.19500
C187        C  0.99928584  0.24846768  0.80191940    -0.06300
C188        C  0.02173162  0.24639155  0.77585621    -0.17400
C189        C  0.02253398  0.24600860  0.72324720     0.10900
C190        C  0.50093591  0.24873555  0.69561148    -0.06200
C191        C  0.47833608  0.25049324  0.72167069    -0.17400
C192        C  0.47742818  0.25073393  0.77418576     0.10900
S193        S  0.05060287  0.24020043  0.69389675    -0.32400
S194        S  0.44874420  0.25570735  0.80318250    -0.32400
H195        H  0.46742717  0.27583115  0.84151131     0.29000
H196        H  0.03196190  0.22140425  0.65427819     0.28900
H197        H  0.03828442  0.24407936  0.79656351     0.19500
H198        H  0.46174947  0.25277813  0.70102440     0.19500
C199        C  0.50023494  0.25197123  0.19531972    -0.06300
C200        C  0.48046063  0.22581344  0.21901857    -0.17400
C201        C  0.47781509  0.22538431  0.27136827     0.10900
C202        C  0.99604722  0.25141764  0.30132644    -0.06200
C203        C  0.01556817  0.27769647  0.27760365    -0.17400
C204        C  0.01808419  0.27818536  0.22517597     0.10900
S205        S  0.44952762  0.19141880  0.29722070    -0.32400
S206        S  0.04571241  0.31245570  0.19913225    -0.32400
H207        H  0.05428241  0.29873292  0.16124821     0.29000
H208        H  0.44218261  0.20553589  0.33628015     0.28900
H209        H  0.46621630  0.20576806  0.19646890     0.19500
H210        H  0.02983073  0.29772344  0.30016760     0.19500
C211        C  0.08521512  0.35852036  0.99827625    -0.06300
C212        C  0.10127850  0.36653437  0.95356608    -0.17400
C213        C  0.12770604  0.39351444  0.95026274     0.10900
C214        C  0.13929517  0.41316817  0.99322196    -0.06200
C215        C  0.12203442  0.40639364  0.03672864    -0.17400
C216        C  0.09532805  0.37931737  0.03988384     0.10900
S217        S  0.14528432  0.40124109  0.88980685    -0.32400
S218        S  0.07687399  0.37179565  0.09936292    -0.32400
H219        H  0.07458323  0.34377498  0.10199608     0.29000
H220        H  0.15536809  0.43192941  0.89389381     0.28900
H221        H  0.09331975  0.35141042  0.92064270     0.19500
H222        H  0.13035914  0.42132130  0.06984068     0.19500
C223        C  0.36168778  0.08246771  0.00033629    -0.06300
C224        C  0.37124891  0.09608455  0.95414993    -0.17400
C225        C  0.39831875  0.12236413  0.95016704     0.10900
C226        C  0.41637572  0.13605796  0.99366756    -0.06200
C227        C  0.40809235  0.12118511  0.03897094    -0.17400
C228        C  0.38086744  0.09479944  0.04297329     0.10900
S229        S  0.40825860  0.13728683  0.88846552    -0.32400
S230        S  0.37084876  0.07988192  0.10451796    -0.32400
H231        H  0.34227292  0.07639119  0.10256692     0.29000
H232        H  0.43897169  0.14921424  0.89592665     0.28900
H233        H  0.35718577  0.08642232  0.92077496     0.19500
H234        H  0.42177912  0.13136520  0.07258600     0.19500
C235        C  0.27894894  0.42215579  0.50369599    -0.06300
C236        C  0.27973491  0.40791003  0.45821468    -0.17400
C237        C  0.27908960  0.38060248  0.45763265     0.10900
C238        C  0.27862860  0.36758506  0.50361355    -0.06200
C239        C  0.28000177  0.38303311  0.54903758    -0.17400
C240        C  0.28048654  0.41018323  0.54957353     0.10900
S241        S  0.27555796  0.36211450  0.39708851    -0.32400
S242        S  0.28279886  0.42834267  0.61008959    -0.32400
H243        H  0.29799464  0.45747278  0.59297114     0.29000
H244        H  0.25282673  0.33414499  0.41153458     0.28900
H245        H  0.27841138  0.41683544  0.42287293     0.19500
H246        H  0.28009153  0.37356299  0.58450027     0.19500
C247        C  0.22167729  0.08874189  0.50635916    -0.06300
C248        C  0.22217874  0.10097281  0.46005463    -0.17400
C249        C  0.22382301  0.12863718  0.45792800     0.10900
C250        C  0.22391490  0.14405229  0.50307582    -0.06200
C251        C  0.22157629  0.13090351  0.54912774    -0.17400
C252        C  0.22017849  0.10341610  0.55124098     0.10900
S253        S  0.22888297  0.14431923  0.39698461    -0.32400
S254        S  0.21663068  0.08833527  0.61237217    -0.32400
H255        H  0.20140076  0.05831889  0.59510332     0.29000
H256        H  0.25043079  0.17335405  0.41337188     0.28900
H257        H  0.22369023  0.09006234  0.42544554     0.19500
H258        H  0.22127550  0.14238897  0.58391310     0.19500
C259        C  0.14255776  0.23471297  0.49380791    -0.06300
C260        C  0.14223944  0.26077479  0.48396251    -0.17400
C261        C  0.11570052  0.26075004  0.47857735     0.10900
C262        C  0.08848590  0.23414081  0.48417113    -0.06200
C263        C  0.08852144  0.20763496  0.49205997    -0.17400
C264        C  0.11540097  0.20770003  0.49736223     0.10900
S265        S  0.11810223  0.29569291  0.46535238    -0.32400
S266        S  0.11360605  0.17335488  0.51231039    -0.32400
H267        H  0.13965549  0.18647672  0.54226492     0.29000
H268        H  0.09129320  0.28314895  0.43751305     0.28900
H269        H  0.16298452  0.28146183  0.48026848     0.19500
H270        H  0.06769639  0.18727958  0.49714953     0.19500
C271        C  0.41264914  0.27415985  0.50432614    -0.06300
C272        C  0.38580541  0.24731914  0.50792274    -0.17400
C273        C  0.35864142  0.24627058  0.50682434     0.10900
C274        C  0.35780314  0.27293982  0.50397992    -0.06200
C275        C  0.38456236  0.29992867  0.49941874    -0.17400
C276        C  0.41202352  0.30084542  0.49994471     0.10900
S277        S  0.32587511  0.20973336  0.50630133    -0.32400
S278        S  0.44527928  0.33663978  0.49751853    -0.32400
H279        H  0.46208476  0.32997086  0.53020378     0.29000
H280        H  0.30999114  0.21601874  0.47091404     0.28900
H281        H  0.38586719  0.22655506  0.50988480     0.19500
H282        H  0.38413531  0.32046904  0.49703490     0.19500
C283        C  0.24699039  0.24791580  0.80883435    -0.06300
C284        C  0.25107573  0.27423855  0.78875546    -0.17400
C285        C  0.25160249  0.27755948  0.73672296     0.10900
C286        C  0.24794787  0.25397030  0.70348004    -0.06200
C287        C  0.24356174  0.22752950  0.72371297    -0.17400
C288        C  0.24311758  0.22427414  0.77572520     0.10900
S289        S  0.25811914  0.31279304  0.71558856    -0.32400
S290        S  0.23870856  0.18991315  0.79724649    -0.32400
H291        H  0.25841047  0.20302913  0.83866372     0.29000
H292        H  0.27764333  0.31467867  0.67731570     0.28900
H293        H  0.25409549  0.29252855  0.81395384     0.19500
H294        H  0.24064243  0.20920851  0.69871035     0.19500
C295        C  0.24991558  0.24750599  0.20325425    -0.06300
C296        C  0.27685380  0.25732004  0.22924390    -0.17400
C297        C  0.27807636  0.25787750  0.28190019     0.10900
C298        C  0.25189661  0.24920831  0.30950227    -0.06200
C299        C  0.22484071  0.23838583  0.28328846    -0.17400
C300        C  0.22352012  0.23703233  0.23072683     0.10900
S301        S  0.31337713  0.26856312  0.31126674    -0.32400
S302        S  0.18732420  0.22056080  0.20114767    -0.32400
H303        H  0.19394908  0.20754099  0.15940831     0.29000
H304        H  0.30139971  0.24802134  0.34950474     0.28900
H305        H  0.29708841  0.26459228  0.20837050     0.19500
H306        H  0.20449917  0.23096080  0.30390745     0.19500
C307        C  0.27564047  0.35821851  0.00594794    -0.06300
C308        C  0.27570080  0.37312318  0.05118569    -0.17400
C309        C  0.27563591  0.39997009  0.05134181     0.10900
C310        C  0.27600410  0.41266130  0.00516920    -0.06200
C311        C  0.27771479  0.39865472  0.96005016    -0.17400
C312        C  0.27738396  0.37159349  0.95983038     0.10900
S313        S  0.27245165  0.41537380  0.11146366    -0.32400
S314        S  0.27676523  0.35430677  0.89926938    -0.32400
H315        H  0.25341465  0.32598240  0.91076815     0.29000
H316        H  0.25031138  0.42126800  0.09528968     0.28900
H317        H  0.27437403  0.36305663  0.08666405     0.19500
H318        H  0.27797147  0.40821623  0.92448953     0.19500
C319        C  0.22394113  0.13687568  0.00303941    -0.06300
C320        C  0.21904309  0.12236525  0.04845532    -0.17400
C321        C  0.21940022  0.09565751  0.05083355     0.10900
C322        C  0.22456344  0.08294044  0.00663452    -0.06200
C323        C  0.22778071  0.09672832  0.96084827    -0.17400
C324        C  0.22787796  0.12355121  0.95865546     0.10900
S325        S  0.21543326  0.08037329  0.11184497    -0.32400
S326        S  0.23568001  0.14081252  0.89883077    -0.32400
H327        H  0.25538397  0.16975045  0.91836107     0.29000
H328        H  0.23956136  0.07549242  0.10656963     0.28900
H329        H  0.21622487  0.13261692  0.08276595     0.19500
H330        H  0.23166345  0.08721319  0.92662079     0.19500
C331        C  0.08371100  0.22076221  0.99900030    -0.06300
C332        C  0.09659744  0.22187725  0.04577314    -0.17400
C333        C  0.12335265  0.22182775  0.04909066     0.10900
C334        C  0.13782110  0.22058863  0.00464948    -0.06200
C335        C  0.12387704  0.21741220  0.95790499    -0.17400
C336        C  0.09705521  0.21747963  0.95460977     0.10900
S337        S  0.13807612  0.22399580  0.11125501    -0.32400
S338        S  0.08127219  0.21379170  0.89270023    -0.32400
H339        H  0.05155129  0.19903369  0.90798917     0.29000
H340        H  0.15093595  0.20649772  0.09831458     0.28900
H341        H  0.08645895  0.22416506  0.08005328     0.19500
H342        H  0.13459018  0.21624652  0.92358134     0.19500
C343        C  0.41403719  0.27299815  0.00337350    -0.06300
C344        C  0.40136287  0.27464810  0.95802580    -0.17400
C345        C  0.37420304  0.27402926  0.95708207     0.10900
C346        C  0.35937196  0.27209560  0.00267481    -0.06200
C347        C  0.37290523  0.27209839  0.04824713    -0.17400
C348        C  0.39983862  0.27227020  0.04908923     0.10900
S349        S  0.35865867  0.27321821  0.89620258    -0.29400
S350        S  0.41352842  0.26903271  0.10926924    -0.32400
H351        H  0.42117908  0.24784455  0.09211450     0.29000
H352        H  0.33010940  0.24970980  0.90643602     0.28900
H353        H  0.41204108  0.27501198  0.92279123     0.19500
H354        H  0.36175924  0.27064783  0.08339638     0.19500
O355        O  0.31065579  0.74826952  0.03396216    -0.78700
C356        C  0.25000807  0.74838566  0.14790550     0.82400
O357        O  0.21454049  0.67410165  0.97332768    -0.79800
O358        O  0.18721830  0.74677896  0.03603604    -0.81300
O359        O  0.28421593  0.81903910  0.97881036    -0.81100
O360        O  0.32112385  0.78097040  0.97476418    -0.79700
Zn361      Zn  0.26731955  0.73053308  0.04877591     1.55700
O362        O  0.25076657  0.81019886  0.03818920    -0.81100
Cd363      Cd  0.28032591  0.77794435  0.96410734     1.59700
Cd364      Cd  0.21726717  0.71476166  0.96130683     1.59600
O365        O  0.26881822  0.76808485  0.88884507    -0.81100
O366        O  0.24923997  0.74679426  0.00642275    -1.91600
Cd367      Cd  0.23186371  0.76551363  0.05117686     1.59900
O368        O  0.22671753  0.72426592  0.88569485    -0.81000
O369        O  0.23674470  0.76004961  0.12650549    -0.79700
C370        C  0.22871865  0.66733286  0.00413366     0.82900
C371        C  0.32884856  0.76713069  0.00396426     0.82500
O372        O  0.26321989  0.73724692  0.12280589    -0.78600
C373        C  0.27028015  0.82760512  0.00804941     0.83300
O374        O  0.24829665  0.68652333  0.03478938    -0.78700
C375        C  0.24753765  0.74644672  0.86413371     0.83500
C376        C  0.16871417  0.72639731  0.00556392     0.83800
O377        O  0.17637897  0.71199093  0.97489295    -0.81200
O378        O  0.30994372  0.75441652  0.53650981    -0.78700
C379        C  0.24892357  0.75588490  0.64801087     0.82400
O380        O  0.21480769  0.68161496  0.47393467    -0.79800
O381        O  0.19041951  0.75812587  0.53015499    -0.81300
O382        O  0.28652944  0.82766703  0.47584530    -0.81100
O383        O  0.32355995  0.78784775  0.47761265    -0.79700
Zn384      Zn  0.26705518  0.73775456  0.54983181     1.55700
O385        O  0.25449762  0.81994770  0.53738632    -0.81100
Cd386      Cd  0.28322229  0.78604580  0.46432419     1.59700
Cd387      Cd  0.21906189  0.72281656  0.46247481     1.59600
O388        O  0.27321630  0.77348714  0.38874869    -0.81100
O389        O  0.25111964  0.75533673  0.50662018    -1.91600
Cd390      Cd  0.23424692  0.77508040  0.55009914     1.59900
O391        O  0.22988185  0.73093154  0.38782400    -0.81000
O392        O  0.23725812  0.76901110  0.62617688    -0.79700
C393        C  0.22908936  0.67470515  0.50405468     0.82900
C394        C  0.32917525  0.77231796  0.50670648     0.82500
O395        O  0.26109117  0.74357768  0.62306230    -0.78600
C396        C  0.27332410  0.83685249  0.50588748     0.83300
O397        O  0.24859306  0.69385010  0.53479716    -0.78700
C398        C  0.25180498  0.75129865  0.36511000     0.83500
C399        C  0.17191765  0.73753003  0.49990387     0.83800
O400        O  0.17869473  0.72109007  0.47278342    -0.81200
O401        O  0.05941285  0.74511586  0.96757800    -0.78700
C402        C  0.99893866  0.74742879  0.85742419     0.82400
O403        O  0.03763658  0.82184154  0.02823167    -0.79800
O404        O  0.43776167  0.74794273  0.96999315    -0.81300
O405        O  0.46282338  0.67581269  0.02543229    -0.81100
O406        O  0.03786670  0.71420526  0.02958098    -0.79700
Zn407      Zn  0.03462266  0.76410534  0.95574224     1.55700
O408        O  0.43893409  0.68522247  0.96623724    -0.81100
Cd409      Cd  0.00001307  0.71732457  0.04106238     1.59700
Cd410      Cd  0.00042010  0.78098602  0.04165463     1.59600
O411        O  0.49934693  0.72867704  0.11635586    -0.81100
O412        O  0.00028995  0.74831205  0.99826997    -1.91600
Cd413      Cd  0.46411610  0.72977325  0.95453384     1.59900
O414        O  0.50161036  0.77272043  0.11679018    -0.81000
O415        O  0.47418861  0.73490362  0.87958385    -0.79700
C416        C  0.05956512  0.82779930  0.99988824     0.82900
C417        C  0.05869778  0.72657191  0.99813400     0.82500
O418        O  0.02346552  0.75896514  0.88191758    -0.78600
C419        C  0.44102047  0.66726345  0.99469527     0.83300
O420        O  0.06033864  0.80768964  0.97200751    -0.78700
C421        C  0.50063923  0.75121935  0.13975017     0.83500
C422        C  0.43957811  0.76813662  0.00091771     0.83800
O423        O  0.46201907  0.78315475  0.03025922    -0.81200
O424        O  0.47715422  0.73973634  0.61574155    -0.78700
C425        C  0.43991341  0.77206609  0.50373013     0.82400
O426        O  0.46213101  0.67907408  0.46568269    -0.79800
O427        O  0.99812142  0.77380331  0.38195384    -0.81300
O428        O  0.06022805  0.81583760  0.53289190    -0.81100
O429        O  0.02633064  0.76384177  0.61812711    -0.79700
Zn430      Zn  0.46616446  0.73574406  0.54234313     1.55700
O431        O  0.03695969  0.82562052  0.47300260    -0.81100
Cd432      Cd  0.03528022  0.77102850  0.54273297     1.59700
Cd433      Cd  0.49907841  0.72055572  0.45259947     1.59600
O434        O  0.06196981  0.75453109  0.52217732    -0.81100
O435        O  0.49945526  0.75267560  0.49845901    -1.91600
Cd436      Cd  0.49890325  0.78438018  0.45825463     1.59900
O437        O  0.03852993  0.71953162  0.46104302    -0.81000
O438        O  0.46074075  0.78685070  0.47331860    -0.79700
C439        C  0.44098974  0.67292067  0.49608261     0.82900
C440        C  0.50158723  0.75074445  0.64023593     0.82500
O441        O  0.44057221  0.75321072  0.53183065    -0.78600
C442        C  0.05866729  0.83388209  0.50390529     0.83300
O443        O  0.44095293  0.69274221  0.52557211    -0.78700
C444        C  0.06111193  0.73548051  0.48973097     0.83500
C445        C  0.99660804  0.75159468  0.35694620     0.83800
O446        O  0.99632078  0.72991739  0.37828353    -0.81200
O447        O  0.31135754  0.55806641  0.97496728    -0.78700
C448        C  0.25107310  0.49840269  0.86107365     0.82400
O449        O  0.21507426  0.53568296  0.03472514    -0.79800
O450        O  0.18933952  0.93674684  0.96735785    -0.81300
O451        O  0.28497318  0.96067719  0.03290919    -0.81100
O452        O  0.32415169  0.53602156  0.03150608    -0.79700
Zn453      Zn  0.26779121  0.53309557  0.96172376     1.55700
O454        O  0.25233675  0.93643666  0.97007076    -0.81100
Cd455      Cd  0.28287323  0.49926009  0.04482200     1.59700
Cd456      Cd  0.21873746  0.49803453  0.04459888     1.59600
O457        O  0.27332885  0.50132423  0.11981567    -0.81100
O458        O  0.25095947  0.49856115  0.00178537    -1.91600
Cd459      Cd  0.23407073  0.96254264  0.95567273     1.59900
O460        O  0.22924459  0.49847768  0.11990206    -0.81000
O461        O  0.24006971  0.97321597  0.88083259    -0.79700
C462        C  0.22992059  0.55753234  0.00675078     0.82900
C463        C  0.33085002  0.55735550  0.00258484     0.82500
O464        O  0.26159971  0.52248857  0.88782342    -0.78600
C465        C  0.27121112  0.93822456  0.00235072     0.83300
O466        O  0.24996670  0.55847022  0.97810872    -0.78700
C467        C  0.25155574  0.00042309  0.14331131     0.83500
C468        C  0.17038589  0.93832683  0.99573577     0.83800
O469        O  0.17781378  0.96014055  0.02744184    -0.81200
O470        O  0.25215209  0.94547162  0.53149376    -0.78700
C471        C  0.24872377  0.00482649  0.64517533     0.82400
O472        O  0.17647819  0.96538394  0.47177330    -0.79800
O473        O  0.24744234  0.56597812  0.53751321    -0.81300
O474        O  0.32128218  0.54201756  0.47620430    -0.81100
O475        O  0.28510737  0.96709472  0.47149253    -0.79700
Zn476      Zn  0.23240095  0.96961584  0.54472604     1.55700
O477        O  0.31136501  0.56643580  0.53696575    -0.81100
Cd478      Cd  0.28067950  0.00413653  0.46069099     1.59700
Cd479      Cd  0.21727497  0.00365379  0.46107383     1.59600
O480        O  0.27056464  0.50385872  0.38545039    -0.81100
O481        O  0.24905016  0.00414262  0.50428294    -1.91600
Cd482      Cd  0.26661385  0.54045123  0.55021031     1.59900
O483        O  0.22762619  0.50336965  0.38591439    -0.81000
O484        O  0.26102399  0.53002397  0.62523106    -0.79700
C485        C  0.16985465  0.94374020  0.50002743     0.82900
C486        C  0.27202501  0.94643905  0.50233598     0.82500
O487        O  0.23722781  0.98060308  0.61862412    -0.78600
C488        C  0.32947851  0.56423238  0.50718074     0.83300
O489        O  0.18908456  0.94337158  0.52890122    -0.78700
C490        C  0.24895208  0.50340325  0.36223623     0.83500
C491        C  0.22762160  0.56379926  0.50694824     0.83800
O492        O  0.21406931  0.54165921  0.47560611    -0.81200
C493        C  0.25117940  0.50000405  0.80580551    -0.06300
C494        C  0.24412097  0.52010701  0.78492302    -0.17400
C495        C  0.24246080  0.52178601  0.73280232     0.10900
C496        C  0.24852119  0.50332026  0.70044633    -0.06200
C497        C  0.25560879  0.98325273  0.72133768    -0.17400
C498        C  0.25750913  0.98175278  0.77343106     0.10900
S499        S  0.23108973  0.54683636  0.71028550    -0.32400
S500        S  0.26998237  0.95755371  0.79593724    -0.32400
H501        H  0.28699645  0.97680024  0.83648986     0.29000
H502        H  0.21466988  0.52846055  0.66853638     0.28900
H503        H  0.23900488  0.53405252  0.80943481     0.19500
H504        H  0.26080431  0.96936641  0.69682166     0.19500
C505        C  0.25171682  0.50136958  0.19937930    -0.06300
C506        C  0.22454573  0.49131035  0.22381970    -0.17400
C507        C  0.22287675  0.49209013  0.27629527     0.10900
C508        C  0.24902085  0.50303114  0.30622673    -0.06200
C509        C  0.27622819  0.01319374  0.28184094    -0.17400
C510        C  0.27790812  0.01239736  0.22932534     0.10900
S511        S  0.18642041  0.47747019  0.30216417    -0.32400
S512        S  0.31437087  0.02678351  0.20351385    -0.32400
H513        H  0.30809144  0.99865416  0.18372677     0.29000
H514        H  0.19252711  0.50553780  0.32196425     0.28900
H515        H  0.20414968  0.48251284  0.20185992     0.19500
H516        H  0.29658730  0.02192518  0.30389542     0.19500
C517        C  0.08390831  0.86479066  0.50458623    -0.06300
C518        C  0.09445590  0.87834049  0.45855152    -0.17400
C519        C  0.12211624  0.90441033  0.45568901     0.10900
C520        C  0.13928040  0.91798341  0.50012020    -0.06200
C521        C  0.12784676  0.90531569  0.54637899    -0.17400
C522        C  0.10047580  0.87917490  0.54919540     0.10900
S523        S  0.13543581  0.91728741  0.39387120    -0.32400
S524        S  0.08816092  0.86526055  0.61095691    -0.32400
H525        H  0.05773298  0.85285278  0.59973269     0.29000
H526        H  0.16455831  0.92341011  0.40346495     0.28900
H527        H  0.08218837  0.86731634  0.42399364     0.19500
H528        H  0.14059751  0.91571538  0.58081553     0.19500
C529        C  0.36056644  0.58899665  0.50674635    -0.06300
C530        C  0.37519292  0.59642740  0.46049760    -0.17400
C531        C  0.40205833  0.62308216  0.45569822     0.10900
C532        C  0.41526531  0.64243700  0.49846594    -0.06200
C533        C  0.40169167  0.63377097  0.54531174    -0.17400
C534        C  0.37477083  0.60744413  0.55002247     0.10900
S535        S  0.41648691  0.63232896  0.39333311    -0.32400
S536        S  0.35981297  0.59900575  0.61237362    -0.32400
H537        H  0.34741758  0.56804434  0.60514509     0.29000
H538        H  0.42091853  0.66132848  0.39767401     0.28900
H539        H  0.36455788  0.58249978  0.42696152     0.19500
H540        H  0.41186797  0.64805307  0.57871023     0.19500
C541        C  0.99928604  0.74846781  0.80191912    -0.06300
C542        C  0.02173177  0.74639163  0.77585587    -0.17400
C543        C  0.02253411  0.74600873  0.72324685     0.10900
C544        C  0.50093615  0.74873578  0.69561125    -0.06200
C545        C  0.47833636  0.75049353  0.72167049    -0.17400
C546        C  0.47742847  0.75073417  0.77418555     0.10900
S547        S  0.05060295  0.74020051  0.69389630    -0.32400
S548        S  0.44874454  0.75570765  0.80318235    -0.32400
H549        H  0.46742748  0.77583129  0.84151135     0.29000
H550        H  0.03196200  0.72140445  0.65427763     0.28900
H551        H  0.03828452  0.74407936  0.79656311     0.19500
H552        H  0.46174979  0.75277848  0.70102423     0.19500
C553        C  0.50023491  0.75197095  0.19531948    -0.06300
C554        C  0.48046045  0.72581322  0.21901835    -0.17400
C555        C  0.47781499  0.72538411  0.27136807     0.10900
C556        C  0.99604735  0.75141745  0.30132612    -0.06200
C557        C  0.01556854  0.77769620  0.27760334    -0.17400
C558        C  0.01808451  0.77818509  0.22517564     0.10900
S559        S  0.44952736  0.69141873  0.29722056    -0.32400
S560        S  0.04571295  0.81245531  0.19913190    -0.32400
H561        H  0.05428254  0.79873239  0.16124747     0.29000
H562        H  0.44218255  0.70553596  0.33628005     0.28900
H563        H  0.46621597  0.70576791  0.19646870     0.19500
H564        H  0.02983126  0.79772310  0.30016728     0.19500
C565        C  0.08521495  0.85852042  0.99827610    -0.06300
C566        C  0.10127827  0.86653448  0.95356587    -0.17400
C567        C  0.12770583  0.89351452  0.95026257     0.10900
C568        C  0.13929500  0.91316821  0.99322183    -0.06200
C569        C  0.12203426  0.90639367  0.03672852    -0.17400
C570        C  0.09532790  0.87931740  0.03988374     0.10900
S571        S  0.14528412  0.90124119  0.88980669    -0.32400
S572        S  0.07687392  0.87179560  0.09936290    -0.32400
H573        H  0.07458323  0.84377497  0.10199594     0.29000
H574        H  0.15536785  0.93192950  0.89389371     0.28900
H575        H  0.09331949  0.85141057  0.92064247     0.19500
H576        H  0.13035902  0.92132133  0.06984063     0.19500
C577        C  0.36168793  0.58246763  0.00033589    -0.06300
C578        C  0.37124909  0.59608440  0.95414948    -0.17400
C579        C  0.39831896  0.62236395  0.95016653     0.10900
C580        C  0.41637593  0.63605781  0.99366705    -0.06200
C581        C  0.40809250  0.62118504  0.03897050    -0.17400
C582        C  0.38086756  0.59479942  0.04297290     0.10900
S583        S  0.40825883  0.63728658  0.88846496    -0.32400
S584        S  0.37084881  0.57988204  0.10451765    -0.32400
H585        H  0.34227302  0.57639144  0.10256645     0.29000
H586        H  0.43897193  0.64921403  0.89592614     0.28900
H587        H  0.35718594  0.58642214  0.92077453     0.19500
H588        H  0.42177924  0.63136515  0.07258557     0.19500
C589        C  0.27894901  0.92215575  0.50369624    -0.06300
C590        C  0.27973497  0.90791002  0.45821488    -0.17400
C591        C  0.27908960  0.88060244  0.45763275     0.10900
C592        C  0.27862856  0.86758496  0.50361360    -0.06200
C593        C  0.28000172  0.88303297  0.54903771    -0.17400
C594        C  0.28048657  0.91018313  0.54957373     0.10900
S595        S  0.27555797  0.86211452  0.39708854    -0.32400
S596        S  0.28279895  0.92834257  0.61008984    -0.32400
H597        H  0.29799480  0.95747268  0.59297141     0.29000
H598        H  0.25282682  0.83414496  0.41153455     0.28900
H599        H  0.27841145  0.91683548  0.42287319     0.19500
H600        H  0.28009145  0.87356282  0.58450031     0.19500
C601        C  0.22167711  0.58874173  0.50635901    -0.06300
C602        C  0.22217879  0.60097279  0.46005455    -0.17400
C603        C  0.22382312  0.62863717  0.45792792     0.10900
C604        C  0.22391481  0.64405216  0.50307576    -0.06200
C605        C  0.22157599  0.63090325  0.54912759    -0.17400
C606        C  0.22017814  0.60341584  0.55124083     0.10900
S607        S  0.22888337  0.64431937  0.39698462    -0.32400
S608        S  0.21663008  0.58833486  0.61237195    -0.32400
H609        H  0.20140036  0.55831851  0.59510291     0.29000
H610        H  0.25043114  0.67335415  0.41337217     0.28900
H611        H  0.22369043  0.59006235  0.42544535     0.19500
H612        H  0.22127506  0.64238868  0.58391309     0.19500
C613        C  0.14255774  0.73471285  0.49380780    -0.06300
C614        C  0.14223948  0.76077475  0.48396288    -0.17400
C615        C  0.11570059  0.76075008  0.47857787     0.10900
C616        C  0.08848593  0.73414081  0.48417116    -0.06200
C617        C  0.08852143  0.70763490  0.49205956    -0.17400
C618        C  0.11540093  0.70769991  0.49736181     0.10900
S619        S  0.11810242  0.79569312  0.46535374    -0.32400
S620        S  0.11360594  0.67335467  0.51230964    -0.32400
H621        H  0.13965530  0.68647641  0.54226440     0.29000
H622        H  0.09129352  0.78314940  0.43751406     0.28900
H623        H  0.16298458  0.78146181  0.48026916     0.19500
H624        H  0.06769634  0.68727947  0.49714883     0.19500
C625        C  0.41264913  0.77415975  0.50432559    -0.06300
C626        C  0.38580541  0.74731903  0.50792219    -0.17400
C627        C  0.35864140  0.74627041  0.50682388     0.10900
C628        C  0.35780308  0.77293963  0.50397954    -0.06200
C629        C  0.38456227  0.79992848  0.49941822    -0.17400
C630        C  0.41202346  0.80084529  0.49994410     0.10900
S631        S  0.32587512  0.70973317  0.50630096    -0.32400
S632        S  0.44527917  0.83663968  0.49751782    -0.32400
H633        H  0.46208472  0.82997084  0.53020303     0.29000
H634        H  0.30999107  0.71601851  0.47091378     0.28900
H635        H  0.38586724  0.72655493  0.50988422     0.19500
H636        H  0.38413518  0.82046886  0.49703439     0.19500
C637        C  0.24699030  0.74791572  0.80883422    -0.06300
C638        C  0.25107536  0.77423837  0.78875536    -0.17400
C639        C  0.25160212  0.77755931  0.73672286     0.10900
C640        C  0.24794781  0.75397024  0.70347992    -0.06200
C641        C  0.24356191  0.72752952  0.72371284    -0.17400
C642        C  0.24311774  0.72427416  0.77572507     0.10900
S643        S  0.25811836  0.81279273  0.71558850    -0.32400
S644        S  0.23870898  0.68991328  0.79724636    -0.32400
H645        H  0.25841085  0.70302937  0.83866360     0.29000
H646        H  0.27764276  0.81467870  0.67731580     0.28900
H647        H  0.25409489  0.79252825  0.81395372     0.19500
H648        H  0.24064281  0.70920863  0.69871027     0.19500
C649        C  0.24991578  0.74750585  0.20325407    -0.06300
C650        C  0.27685401  0.75732013  0.22924381    -0.17400
C651        C  0.27807654  0.75787759  0.28190010     0.10900
C652        C  0.25189671  0.74920817  0.30950209    -0.06200
C653        C  0.22484079  0.73838544  0.28328818    -0.17400
C654        C  0.22352027  0.73703192  0.23072654     0.10900
S655        S  0.31337735  0.76856348  0.31126674    -0.32400
S656        S  0.18732435  0.72056003  0.20114723    -0.32400
H657        H  0.19394951  0.70754056  0.15940773     0.29000
H658        H  0.30140003  0.74802161  0.34950462     0.28900
H659        H  0.29708868  0.76459257  0.20837047     0.19500
H660        H  0.20449922  0.73096025  0.30390708     0.19500
C661        C  0.27564074  0.85821861  0.00594762    -0.06300
C662        C  0.27570149  0.87312348  0.05118541    -0.17400
C663        C  0.27563656  0.89997038  0.05134152     0.10900
C664        C  0.27600425  0.91266136  0.00516888    -0.06200
C665        C  0.27771458  0.89865459  0.96004979    -0.17400
C666        C  0.27738381  0.87159339  0.95983001     0.10900
S667        S  0.27245285  0.91537435  0.11146349    -0.32400
S668        S  0.27676465  0.85430646  0.89926901    -0.32400
H669        H  0.25341431  0.82598208  0.91076835     0.29000
H670        H  0.25031233  0.92126835  0.09529017     0.28900
H671        H  0.27437509  0.86305712  0.08666374     0.19500
H672        H  0.27797093  0.90821593  0.92448914     0.19500
C673        C  0.22394119  0.63687567  0.00303914    -0.06300
C674        C  0.21904303  0.62236514  0.04845497    -0.17400
C675        C  0.21940016  0.59565741  0.05083316     0.10900
C676        C  0.22456352  0.58294044  0.00663415    -0.06200
C677        C  0.22778089  0.59672839  0.96084795    -0.17400
C678        C  0.22787814  0.62355127  0.95865520     0.10900
S679        S  0.21543306  0.58037308  0.11184450    -0.32400
S680        S  0.23568038  0.64081270  0.89883061    -0.32400
H681        H  0.25538417  0.66975064  0.91836107     0.29000
H682        H  0.23956125  0.57549235  0.10656937     0.28900
H683        H  0.21622471  0.63261676  0.08276564     0.19500
H684        H  0.23166373  0.58721332  0.92662050     0.19500
C685        C  0.08371129  0.72076245  0.99900026    -0.06300
C686        C  0.09659776  0.72187761  0.04577313    -0.17400
C687        C  0.12335301  0.72182818  0.04909072     0.10900
C688        C  0.13782143  0.72058895  0.00464957    -0.06200
C689        C  0.12387737  0.71741246  0.95790505    -0.17400
C690        C  0.09705553  0.71747984  0.95460978     0.10900
S691        S  0.13807661  0.72399655  0.11125510    -0.32400
S692        S  0.08127253  0.71379184  0.89270022    -0.32400
H693        H  0.05155162  0.69903386  0.90798911     0.29000
H694        H  0.15093630  0.70649831  0.09831497     0.28900
H695        H  0.08645928  0.72416547  0.08005323     0.19500
H696        H  0.13459052  0.71624675  0.92358145     0.19500
C697        C  0.41403722  0.77299792  0.00337315    -0.06300
C698        C  0.40136285  0.77464771  0.95802539    -0.17400
C699        C  0.37420302  0.77402885  0.95708161     0.10900
C700        C  0.35937202  0.77209540  0.00267437    -0.06200
C701        C  0.37290534  0.77209833  0.04824672    -0.17400
C702        C  0.39983871  0.77227011  0.04908888     0.10900
S703        S  0.35865849  0.77321745  0.89620207    -0.29400
S704        S  0.41352855  0.76903278  0.10926897    -0.32400
H705        H  0.42117920  0.74784457  0.09211443     0.29000
H706        H  0.33010920  0.74970922  0.90643597     0.28900
H707        H  0.41204101  0.77501146  0.92279081     0.19500
H708        H  0.36175938  0.77064790  0.08339598     0.19500
O709        O  0.81065570  0.24826967  0.03396242    -0.78700
C710        C  0.75000775  0.24838556  0.14790576     0.82400
O711        O  0.71454046  0.17410166  0.97332784    -0.79800
O712        O  0.68721802  0.24677874  0.03603600    -0.81300
O713        O  0.78421560  0.31903904  0.97881068    -0.81100
O714        O  0.82112372  0.28097061  0.97476456    -0.79700
Zn715      Zn  0.76731943  0.23053313  0.04877613     1.55700
O716        O  0.75076619  0.31019870  0.03818946    -0.81100
Cd717      Cd  0.78032571  0.27794439  0.96410766     1.59700
Cd718      Cd  0.71726710  0.21476162  0.96130688     1.59600
O719        O  0.76881816  0.26808496  0.88884534    -0.81100
O720        O  0.74923978  0.24679423  0.00642297    -1.91600
Cd721      Cd  0.73186340  0.26551348  0.05117707     1.59900
O722        O  0.72671757  0.22426595  0.88569493    -0.81000
O723        O  0.73674433  0.26004946  0.12650575    -0.79700
C724        C  0.72871861  0.16733288  0.00413388     0.82900
C725        C  0.82884847  0.26713090  0.00396458     0.82500
O726        O  0.76321964  0.23724690  0.12280612    -0.78600
C727        C  0.77027977  0.32760501  0.00804970     0.83300
O728        O  0.74829660  0.18652337  0.03478960    -0.78700
C729        C  0.74753769  0.24644681  0.86413388     0.83500
C730        C  0.66871396  0.22639710  0.00556379     0.83800
O731        O  0.67637882  0.21199077  0.97489283    -0.81200
O732        O  0.80994391  0.25441693  0.53651024    -0.78700
C733        C  0.74892357  0.25588499  0.64801102     0.82400
O734        O  0.71480778  0.18161508  0.47393522    -0.79800
O735        O  0.69041966  0.25812620  0.53015493    -0.81300
O736        O  0.78652951  0.32766712  0.47584526    -0.81100
O737        O  0.82356013  0.28784798  0.47761279    -0.79700
Zn738      Zn  0.76705536  0.23775484  0.54983203     1.55700
O739        O  0.75449785  0.31994791  0.53738653    -0.81100
Cd740      Cd  0.78322241  0.28604592  0.46432426     1.59700
Cd741      Cd  0.71906197  0.22281666  0.46247521     1.59600
O742        O  0.77321631  0.27348710  0.38874883    -0.81100
O743        O  0.75111977  0.25533692  0.50662039    -1.91600
Cd744      Cd  0.73424702  0.27508059  0.55009929     1.59900
O745        O  0.72988184  0.23093152  0.38782437    -0.81000
O746        O  0.73725810  0.26901119  0.62617703    -0.79700
C747        C  0.72908963  0.17470539  0.50405503     0.82900
C748        C  0.82917544  0.27231829  0.50670685     0.82500
O749        O  0.76109123  0.24357784  0.62306246    -0.78600
C750        C  0.77332427  0.33685264  0.50588755     0.83300
O751        O  0.74859342  0.19385043  0.53479729    -0.78700
C752        C  0.75180494  0.25129859  0.36511027     0.83500
C753        C  0.67191777  0.23753028  0.49990396     0.83800
O754        O  0.67869482  0.22109020  0.47278376    -0.81200
O755        O  0.55941278  0.24511586  0.96757823    -0.78700
C756        C  0.49893861  0.24742893  0.85742453     0.82400
O757        O  0.53763667  0.32184169  0.02823179    -0.79800
O758        O  0.93776150  0.24794286  0.96999330    -0.81300
O759        O  0.96282307  0.17581281  0.02543287    -0.81100
O760        O  0.53786658  0.21420522  0.02958115    -0.79700
Zn761      Zn  0.53462266  0.26410541  0.95574254     1.55700
O762        O  0.93893376  0.18522251  0.96623774    -0.81100
Cd763      Cd  0.50001303  0.21732467  0.04106273     1.59700
Cd764      Cd  0.50042018  0.28098620  0.04165497     1.59600
O765        O  0.99934686  0.22867723  0.11635615    -0.81100
O766        O  0.50028995  0.24831218  0.99827031    -1.91600
Cd767      Cd  0.96411586  0.22977326  0.95453415     1.59900
O768        O  0.00161023  0.27272058  0.11679030    -0.81000
O769        O  0.97418831  0.23490349  0.87958415    -0.79700
C770        C  0.55956522  0.32779939  0.99988839     0.82900
C771        C  0.55869766  0.22657186  0.99813414     0.82500
O772        O  0.52346547  0.25896520  0.88191789    -0.78600
C773        C  0.94102013  0.16726354  0.99469588     0.83300
O774        O  0.56033872  0.30768970  0.97200774    -0.78700
C775        C  0.00063913  0.25121954  0.13975039     0.83500
C776        C  0.93957802  0.26813682  0.00091776     0.83800
O777        O  0.96201903  0.28315497  0.03025918    -0.81200
O778        O  0.97715393  0.23973587  0.61574171    -0.78700
C779        C  0.93991337  0.27206598  0.50373074     0.82400
O780        O  0.96213109  0.17907399  0.46568235    -0.79800
O781        O  0.49812132  0.27380345  0.38195417    -0.81300
O782        O  0.56022805  0.31583773  0.53289207    -0.81100
O783        O  0.52633066  0.26384192  0.61812735    -0.79700
Zn784      Zn  0.96616432  0.23574376  0.54234326     1.55700
O785        O  0.53695963  0.32562060  0.47300278    -0.81100
Cd786      Cd  0.53528026  0.27102863  0.54273317     1.59700
Cd787      Cd  0.99907841  0.22055575  0.45259942     1.59600
O788        O  0.56196992  0.25453128  0.52217738    -0.81100
O789        O  0.99945518  0.25267545  0.49845929    -1.91600
Cd790      Cd  0.99890318  0.28438013  0.45825516     1.59900
O791        O  0.53852995  0.21953174  0.46104321    -0.81000
O792        O  0.96074073  0.28685066  0.47331931    -0.79700
C793        C  0.94098980  0.17292047  0.49608227     0.82900
C794        C  0.00158690  0.25074390  0.64023617     0.82500
O795        O  0.94057209  0.25321047  0.53183101    -0.78600
C796        C  0.55866726  0.33388219  0.50390540     0.83300
O797        O  0.94095290  0.19274193  0.52557187    -0.78700
C798        C  0.56111199  0.23548066  0.48973106     0.83500
C799        C  0.49660797  0.25159484  0.35694649     0.83800
O800        O  0.49632076  0.22991756  0.37828378    -0.81200
O801        O  0.81135730  0.05806643  0.97496775    -0.78700
C802        C  0.75107312  0.99840280  0.86107385     0.82400
O803        O  0.71507416  0.03568296  0.03472566    -0.79800
O804        O  0.68933961  0.43674689  0.96735797    -0.81300
O805        O  0.78497304  0.46067716  0.03290949    -0.81100
O806        O  0.82415142  0.03602156  0.03150657    -0.79700
Zn807      Zn  0.76779102  0.03309555  0.96172403     1.55700
O808        O  0.75233675  0.43643671  0.97007083    -0.81100
Cd809      Cd  0.78287300  0.99925992  0.04482196     1.59700
Cd810      Cd  0.71873729  0.99803445  0.04459909     1.59600
O811        O  0.77332834  0.00132352  0.11981554    -0.81100
O812        O  0.75095926  0.99856105  0.00178546    -1.91600
Cd813      Cd  0.73407077  0.46254268  0.95567280     1.59900
O814        O  0.72924421  0.99847717  0.11990228    -0.81000
O815        O  0.74006971  0.47321590  0.88083266    -0.79700
C816        C  0.72992041  0.05753230  0.00675122     0.82900
C817        C  0.83084976  0.05735552  0.00258539     0.82500
O818        O  0.76159970  0.02248865  0.88782367    -0.78600
C819        C  0.77121102  0.43822456  0.00235095     0.83300
O820        O  0.74996647  0.05847017  0.97810905    -0.78700
C821        C  0.75155581  0.50042327  0.14331137     0.83500
C822        C  0.67038597  0.43832691  0.99573583     0.83800
O823        O  0.67781384  0.46014064  0.02744184    -0.81200
O824        O  0.75215208  0.44547156  0.53149376    -0.78700
C825        C  0.74872362  0.50482624  0.64517529     0.82400
O826        O  0.67647820  0.46538394  0.47177312    -0.79800
O827        O  0.74744284  0.06597835  0.53751344    -0.81300
O828        O  0.82128230  0.04201734  0.47620435    -0.81100
O829        O  0.78510731  0.46709471  0.47149246    -0.79700
Zn830      Zn  0.73240090  0.46961573  0.54472596     1.55700
O831        O  0.81136537  0.06643566  0.53696604    -0.81100
Cd832      Cd  0.78067946  0.50413650  0.46069089     1.59700
Cd833      Cd  0.71727500  0.50365379  0.46107380     1.59600
O834        O  0.77056459  0.00385825  0.38545076    -0.81100
O835        O  0.74905016  0.50414256  0.50428290    -1.91600
Cd836      Cd  0.76661418  0.04045129  0.55021059     1.59900
O837        O  0.72762654  0.00336991  0.38591485    -0.81000
O838        O  0.76102421  0.03002408  0.62523135    -0.79700
C839        C  0.66985465  0.44374019  0.50002724     0.82900
C840        C  0.77202499  0.44643904  0.50233593     0.82500
O841        O  0.73722761  0.48060284  0.61862406    -0.78600
C842        C  0.82947875  0.06423216  0.50718083     0.83300
O843        O  0.68908454  0.44337153  0.52890102    -0.78700
C844        C  0.74895218  0.00340307  0.36223661     0.83500
C845        C  0.72762202  0.06379952  0.50694866     0.83800
O846        O  0.71406961  0.04165944  0.47560662    -0.81200
C847        C  0.75117945  0.00000420  0.80580574    -0.06300
C848        C  0.74412084  0.02010705  0.78492330    -0.17400
C849        C  0.74246062  0.02178601  0.73280259     0.10900
C850        C  0.74852115  0.00332036  0.70044660    -0.06200
C851        C  0.75560833  0.48325226  0.72133766    -0.17400
C852        C  0.75750875  0.48175234  0.77343103     0.10900
S853        S  0.73108927  0.04683614  0.71028578    -0.32400
S854        S  0.76998155  0.45755292  0.79593718    -0.32400
H855        H  0.78699599  0.47679948  0.83648951     0.29000
H856        H  0.71466987  0.02846050  0.66853621     0.28900
H857        H  0.73900464  0.03405245  0.80943507     0.19500
H858        H  0.76080358  0.46936572  0.69682159     0.19500
C859        C  0.75171641  0.00136856  0.19937946    -0.06300
C860        C  0.72454568  0.99131165  0.22382011    -0.17400
C861        C  0.72287690  0.99209170  0.27629572     0.10900
C862        C  0.74902080  0.00303068  0.30622703    -0.06200
C863        C  0.77622828  0.51319455  0.28184099    -0.17400
C864        C  0.77790826  0.51239828  0.22932540     0.10900
S865        S  0.68642090  0.97747481  0.30216470    -0.32400
S866        S  0.81437112  0.52678559  0.20351387    -0.32400
H867        H  0.80809276  0.49865647  0.18372736     0.29000
H868        H  0.69253032  0.00554322  0.32196520     0.28900
H869        H  0.70414982  0.98251589  0.20186059     0.19500
H870        H  0.79658746  0.52192655  0.30389555     0.19500
C871        C  0.58390829  0.36479074  0.50458619    -0.06300
C872        C  0.59445596  0.37834040  0.45855137    -0.17400
C873        C  0.62211631  0.40441021  0.45568882     0.10900
C874        C  0.63928039  0.41798343  0.50012002    -0.06200
C875        C  0.62784668  0.40531586  0.54637888    -0.17400
C876        C  0.60047569  0.37917510  0.54919535     0.10900
S877        S  0.63543599  0.41728708  0.39387096    -0.32400
S878        S  0.58816069  0.36526094  0.61095693    -0.32400
H879        H  0.55773277  0.35285307  0.59973250     0.29000
H880        H  0.66455852  0.42340996  0.40346503     0.28900
H881        H  0.58218849  0.36731615  0.42399353     0.19500
H882        H  0.64059738  0.41571566  0.58081542     0.19500
C883        C  0.86056670  0.08899636  0.50674622    -0.06300
C884        C  0.87519295  0.09642724  0.46049728    -0.17400
C885        C  0.90205834  0.12308200  0.45569780     0.10900
C886        C  0.91526548  0.14243674  0.49846559    -0.06200
C887        C  0.90169210  0.13377055  0.54531155    -0.17400
C888        C  0.87477132  0.10744366  0.55002239     0.10900
S889        S  0.91648665  0.13232895  0.39333256    -0.32400
S890        S  0.85981381  0.09900500  0.61237375    -0.32400
H891        H  0.84741817  0.06804359  0.60514465     0.29000
H892        H  0.92091846  0.16132853  0.39767392     0.28900
H893        H  0.86455774  0.08249972  0.42696119     0.19500
H894        H  0.91186855  0.14805254  0.57871004     0.19500
C895        C  0.49928597  0.24846792  0.80191942    -0.06300
C896        C  0.52173179  0.24639188  0.77585618    -0.17400
C897        C  0.52253416  0.24600896  0.72324717     0.10900
C898        C  0.00093576  0.24873521  0.69561148    -0.06200
C899        C  0.97833597  0.25049301  0.72167065    -0.17400
C900        C  0.97742810  0.25073375  0.77418573     0.10900
S901        S  0.55060308  0.24020087  0.69389666    -0.32400
S902        S  0.94874422  0.25570735  0.80318246    -0.32400
H903        H  0.96742721  0.27583109  0.84151132     0.29000
H904        H  0.53196214  0.22140468  0.65427809     0.28900
H905        H  0.53828463  0.24407972  0.79656348     0.19500
H906        H  0.96174943  0.25277795  0.70102437     0.19500
C907        C  0.00023480  0.25197119  0.19531972    -0.06300
C908        C  0.98046064  0.22581336  0.21901863    -0.17400
C909        C  0.97781517  0.22538423  0.27136834     0.10900
C910        C  0.49604727  0.25141765  0.30132642    -0.06200
C911        C  0.51556838  0.27769645  0.27760370    -0.17400
C912        C  0.51808443  0.27818535  0.22517602     0.10900
S913        S  0.94952796  0.19141863  0.29722085    -0.32400
S914        S  0.54571281  0.31245562  0.19913234    -0.32400
H915        H  0.55428260  0.29873276  0.16124814     0.29000
H916        H  0.94218267  0.20553563  0.33628004     0.28900
H917        H  0.96621639  0.20576793  0.19646900     0.19500
H918        H  0.52983100  0.29772336  0.30016767     0.19500
C919        C  0.58521507  0.35852049  0.99827622    -0.06300
C920        C  0.60127839  0.36653454  0.95356597    -0.17400
C921        C  0.62770594  0.39351460  0.95026265     0.10900
C922        C  0.63929511  0.41316828  0.99322191    -0.06200
C923        C  0.62203439  0.40639376  0.03672864    -0.17400
C924        C  0.59532803  0.37931748  0.03988384     0.10900
S925        S  0.64528425  0.40124127  0.88980678    -0.32400
S926        S  0.57687406  0.37179570  0.09936301    -0.32400
H927        H  0.57458339  0.34377506  0.10199607     0.29000
H928        H  0.65536802  0.43192959  0.89389379     0.28900
H929        H  0.59331960  0.35141063  0.92064258     0.19500
H930        H  0.63035913  0.42132138  0.06984066     0.19500
C931        C  0.86168765  0.08246768  0.00033655    -0.06300
C932        C  0.87124889  0.09608437  0.95415010    -0.17400
C933        C  0.89831872  0.12236394  0.95016719     0.10900
C934        C  0.91637559  0.13605790  0.99366777    -0.06200
C935        C  0.90809209  0.12118522  0.03897130    -0.17400
C936        C  0.88086717  0.09479956  0.04297367     0.10900
S937        S  0.90825871  0.13728646  0.88846556    -0.32400
S938        S  0.87084830  0.07988224  0.10451845    -0.32400
H939        H  0.84227243  0.07639143  0.10256691     0.29000
H940        H  0.93897179  0.14921395  0.89592697     0.28900
H941        H  0.85718581  0.08642201  0.92077505     0.19500
H942        H  0.92177876  0.13136543  0.07258644     0.19500
C943        C  0.77894906  0.42215580  0.50369612    -0.06300
C944        C  0.77973472  0.40790992  0.45821476    -0.17400
C945        C  0.77908940  0.38060237  0.45763267     0.10900
C946        C  0.77862873  0.36758510  0.50361356    -0.06200
C947        C  0.78000221  0.38303327  0.54903762    -0.17400
C948        C  0.78048698  0.41018339  0.54957362     0.10900
S949        S  0.77555734  0.36211422  0.39708854    -0.32400
S950        S  0.78279973  0.42834305  0.61008965    -0.32400
H951        H  0.79799530  0.45747308  0.59297085     0.29000
H952        H  0.75282630  0.33414473  0.41153506     0.28900
H953        H  0.77841092  0.41683522  0.42287306     0.19500
H954        H  0.78009222  0.37356325  0.58450028     0.19500
C955        C  0.72167759  0.08874204  0.50635957    -0.06300
C956        C  0.72217882  0.10097287  0.46005504    -0.17400
C957        C  0.72382308  0.12863723  0.45792838     0.10900
C958        C  0.72391515  0.14405242  0.50307621    -0.06200
C959        C  0.72157677  0.13090375  0.54912816    -0.17400
C960        C  0.72017900  0.10341636  0.55124143     0.10900
S961        S  0.72888276  0.14431912  0.39698491    -0.32400
S962        S  0.71663155  0.08833571  0.61237268    -0.32400
H963        H  0.70140149  0.05831929  0.59510407     0.29000
H964        H  0.75043063  0.17335398  0.41337189     0.28900
H965        H  0.72369015  0.09006231  0.42544591     0.19500
H966        H  0.72127612  0.14238930  0.58391356     0.19500
C967        C  0.64255785  0.23471307  0.49380782    -0.06300
C968        C  0.64223955  0.26077491  0.48396247    -0.17400
C969        C  0.61570061  0.26075017  0.47857737     0.10900
C970        C  0.58848598  0.23414094  0.48417114    -0.06200
C971        C  0.58852152  0.20763508  0.49205990    -0.17400
C972        C  0.61540105  0.20770015  0.49736212     0.10900
S973        S  0.61810235  0.29569305  0.46535241    -0.32400
S974        S  0.61360612  0.17335499  0.51231032    -0.32400
H975        H  0.63965553  0.18647685  0.54226494     0.29000
H976        H  0.59129331  0.28314910  0.43751311     0.28900
H977        H  0.66298461  0.28146192  0.48026845     0.19500
H978        H  0.56769648  0.18727971  0.49714943     0.19500
C979        C  0.91264916  0.27415978  0.50432634    -0.06300
C980        C  0.88580539  0.24731910  0.50792276    -0.17400
C981        C  0.85864144  0.24627060  0.50682437     0.10900
C982        C  0.85780324  0.27293990  0.50398005    -0.06200
C983        C  0.88456250  0.29992872  0.49941904    -0.17400
C984        C  0.91202363  0.30084542  0.49994508     0.10900
S985        S  0.82587506  0.20973342  0.50630129    -0.32400
S986        S  0.94527945  0.33663977  0.49751926    -0.32400
H987        H  0.96208482  0.32997070  0.53020447     0.29000
H988        H  0.80999115  0.21601887  0.47091400     0.28900
H989        H  0.88586712  0.22655497  0.50988470     0.19500
H990        H  0.88413550  0.32046914  0.49703532     0.19500
C991        C  0.74699040  0.24791584  0.80883438    -0.06300
C992        C  0.75107557  0.27423854  0.78875551    -0.17400
C993        C  0.75160229  0.27755945  0.73672300     0.10900
C994        C  0.74794780  0.25397032  0.70348007    -0.06200
C995        C  0.74356184  0.22752958  0.72371299    -0.17400
C996        C  0.74311774  0.22427424  0.77572522     0.10900
S997        S  0.75811873  0.31279294  0.71558859    -0.32400
S998        S  0.73870893  0.18991333  0.79724649    -0.32400
H999        H  0.75841077  0.20302936  0.83866379     0.29000
H1000       H  0.77764305  0.31467875  0.67731585     0.28900
H1001       H  0.75409521  0.29252846  0.81395385     0.19500
H1002       H  0.74064265  0.20920865  0.69871039     0.19500
C1003       C  0.74991549  0.24750575  0.20325435    -0.06300
C1004       C  0.77685371  0.25731964  0.22924396    -0.17400
C1005       C  0.77807627  0.25787709  0.28190027     0.10900
C1006       C  0.75189656  0.24920806  0.30950237    -0.06200
C1007       C  0.72484065  0.23838570  0.28328862    -0.17400
C1008       C  0.72352006  0.23703217  0.23072697     0.10900
S1009       S  0.81337699  0.26856249  0.31126679    -0.32400
S1010       S  0.68732411  0.22056060  0.20114788    -0.32400
H1011       H  0.69394899  0.20754086  0.15940843     0.29000
H1012       H  0.80139948  0.24802080  0.34950491     0.28900
H1013       H  0.79708824  0.26459175  0.20837059     0.19500
H1014       H  0.70449919  0.23096078  0.30390760     0.19500
C1015       C  0.77564035  0.35821850  0.00594798    -0.06300
C1016       C  0.77570077  0.37312321  0.05118574    -0.17400
C1017       C  0.77563587  0.39997012  0.05134184     0.10900
C1018       C  0.77600403  0.41266131  0.00516921    -0.06200
C1019       C  0.77771468  0.39865470  0.96005018    -0.17400
C1020       C  0.77738380  0.37159345  0.95983040     0.10900
S1021       S  0.77245156  0.41537380  0.11146367    -0.32400
S1022       S  0.77676493  0.35430668  0.89926937    -0.32400
H1023       H  0.75341443  0.32598229  0.91076829     0.29000
H1024       H  0.75031136  0.42126809  0.09528963     0.28900
H1025       H  0.77437403  0.36305669  0.08666407     0.19500
H1026       H  0.77797135  0.40821621  0.92448953     0.19500
C1027       C  0.72394112  0.13687568  0.00303943    -0.06300
C1028       C  0.71904293  0.12236519  0.04845530    -0.17400
C1029       C  0.71939995  0.09565739  0.05083351     0.10900
C1030       C  0.72456329  0.08294038  0.00663453    -0.06200
C1031       C  0.72778065  0.09672829  0.96084829    -0.17400
C1032       C  0.72787796  0.12355121  0.95865550     0.10900
S1033       S  0.71543259  0.08037297  0.11184484    -0.32400
S1034       S  0.73568007  0.14081253  0.89883082    -0.32400
H1035       H  0.75538405  0.16975046  0.91836113     0.29000
H1036       H  0.73956078  0.07549222  0.10656999     0.28900
H1037       H  0.71622465  0.13261683  0.08276590     0.19500
H1038       H  0.73166341  0.08721317  0.92662085     0.19500
C1039       C  0.58371112  0.22076230  0.99900026    -0.06300
C1040       C  0.59659751  0.22187724  0.04577310    -0.17400
C1041       C  0.62335273  0.22182774  0.04909060     0.10900
C1042       C  0.63782120  0.22058867  0.00464941    -0.06200
C1043       C  0.62387720  0.21741236  0.95790490    -0.17400
C1044       C  0.59705539  0.21747982  0.95460972     0.10900
S1045       S  0.63807622  0.22399577  0.11125493    -0.32400
S1046       S  0.58127251  0.21379214  0.89270016    -0.32400
H1047       H  0.55155158  0.19903412  0.90798891     0.29000
H1048       H  0.65093602  0.20649767  0.09831447     0.28900
H1049       H  0.58645901  0.22416498  0.08005325     0.19500
H1050       H  0.63459037  0.21624677  0.92358130     0.19500
C1051       C  0.91403714  0.27299814  0.00337329    -0.06300
C1052       C  0.90136286  0.27464815  0.95802558    -0.17400
C1053       C  0.87420304  0.27402935  0.95708191     0.10900
C1054       C  0.85937195  0.27209566  0.00267466    -0.06200
C1055       C  0.87290517  0.27209835  0.04824699    -0.17400
C1056       C  0.89983857  0.27227015  0.04908903     0.10900
S1057       S  0.85865870  0.27321843  0.89620244    -0.29400
S1058       S  0.91352838  0.26903264  0.10926903    -0.32400
H1059       H  0.92117913  0.24784456  0.09211424     0.29000
H1060       H  0.83010938  0.24971006  0.90643580     0.28900
H1061       H  0.91204105  0.27501207  0.92279109     0.19500
H1062       H  0.86175919  0.27064772  0.08339615     0.19500
O1063       O  0.81065585  0.74826964  0.03396206    -0.78700
C1064       C  0.75000802  0.74838556  0.14790560     0.82400
O1065       O  0.71454053  0.67410165  0.97332783    -0.79800
O1066       O  0.68721832  0.74677891  0.03603604    -0.81300
O1067       O  0.78421584  0.81903909  0.97881051    -0.81100
O1068       O  0.82112384  0.78097054  0.97476415    -0.79700
Zn1069     Zn  0.76731961  0.73053312  0.04877593     1.55700
O1070       O  0.75076654  0.81019881  0.03818946    -0.81100
Cd1071     Cd  0.78032586  0.77794438  0.96410743     1.59700
Cd1072     Cd  0.71726720  0.71476162  0.96130690     1.59600
O1073       O  0.76881814  0.76808491  0.88884518    -0.81100
O1074       O  0.74923998  0.74679425  0.00642283    -1.91600
Cd1075     Cd  0.73186371  0.76551357  0.05117700     1.59900
O1076       O  0.72671756  0.72426588  0.88569493    -0.81000
O1077       O  0.73674461  0.76004948  0.12650564    -0.79700
C1078       C  0.72871870  0.66733287  0.00413380     0.82900
C1079       C  0.82884859  0.76713084  0.00396416     0.82500
O1080       O  0.76321990  0.73724691  0.12280594    -0.78600
C1081       C  0.77028008  0.82760509  0.00804962     0.83300
O1082       O  0.74829675  0.68652337  0.03478943    -0.78700
C1083       C  0.74753763  0.74644674  0.86413381     0.83500
C1084       C  0.66871420  0.72639723  0.00556396     0.83800
O1085       O  0.67637899  0.71199083  0.97489303    -0.81200
O1086       O  0.80994387  0.75441673  0.53651007    -0.78700
C1087       C  0.74892353  0.75588496  0.64801099     0.82400
O1088       O  0.71480777  0.68161500  0.47393511    -0.79800
O1089       O  0.69041956  0.75812593  0.53015495    -0.81300
O1090       O  0.78652953  0.82766705  0.47584548    -0.81100
O1091       O  0.82356003  0.78784780  0.47761266    -0.79700
Zn1092     Zn  0.76705533  0.73775474  0.54983201     1.55700
O1093       O  0.75449769  0.81994771  0.53738650    -0.81100
Cd1094     Cd  0.78322235  0.78604583  0.46432424     1.59700
Cd1095     Cd  0.71906194  0.72281656  0.46247505     1.59600
O1096       O  0.77321627  0.77348709  0.38874874    -0.81100
O1097       O  0.75111972  0.75533679  0.50662032    -1.91600
Cd1098     Cd  0.73424692  0.77508042  0.55009924     1.59900
O1099       O  0.72988190  0.73093141  0.38782420    -0.81000
O1100       O  0.73725798  0.76901105  0.62617698    -0.79700
C1101       C  0.72908956  0.67470529  0.50405499     0.82900
C1102       C  0.82917536  0.77231809  0.50670662     0.82500
O1103       O  0.76109127  0.74357787  0.62306245    -0.78600
C1104       C  0.77332421  0.83685251  0.50588770     0.83300
O1105       O  0.74859332  0.69385030  0.53479733    -0.78700
C1106       C  0.75180498  0.75129854  0.36511013     0.83500
C1107       C  0.67191770  0.73753008  0.49990385     0.83800
O1108       O  0.67869479  0.72109010  0.47278347    -0.81200
O1109       O  0.55941299  0.74511598  0.96757813    -0.78700
C1110       C  0.49893879  0.74742895  0.85742424     0.82400
O1111       O  0.53763662  0.82184156  0.02823175    -0.79800
O1112       O  0.93776155  0.74794268  0.96999291    -0.81300
O1113       O  0.96282327  0.67581270  0.02543237    -0.81100
O1114       O  0.53786681  0.71420530  0.02958101    -0.79700
Zn1115     Zn  0.53462277  0.76410541  0.95574231     1.55700
O1116       O  0.93893394  0.68522238  0.96623725    -0.81100
Cd1117     Cd  0.50001314  0.71732456  0.04106242     1.59700
Cd1118     Cd  0.50042020  0.78098603  0.04165478     1.59600
O1119       O  0.99934692  0.72867710  0.11635577    -0.81100
O1120       O  0.50029006  0.74831208  0.99827005    -1.91600
Cd1121     Cd  0.96411598  0.72977315  0.95453376     1.59900
O1122       O  0.00161018  0.77272041  0.11679006    -0.81000
O1123       O  0.97418848  0.73490345  0.87958380    -0.79700
C1124       C  0.55956517  0.82779934  0.99988832     0.82900
C1125       C  0.55869792  0.72657201  0.99813408     0.82500
O1126       O  0.52346564  0.75896525  0.88191764    -0.78600
C1127       C  0.94102034  0.66726341  0.99469536     0.83300
O1128       O  0.56033871  0.80768970  0.97200760    -0.78700
C1129       C  0.00063914  0.75121938  0.13975007     0.83500
C1130       C  0.93957805  0.76813664  0.00091735     0.83800
O1131       O  0.96201903  0.78315479  0.03025881    -0.81200
O1132       O  0.97715402  0.73973605  0.61574150    -0.78700
C1133       C  0.93991336  0.77206593  0.50373007     0.82400
O1134       O  0.96213109  0.67907398  0.46568244    -0.79800
O1135       O  0.49812140  0.77380326  0.38195385    -0.81300
O1136       O  0.56022814  0.81583774  0.53289156    -0.81100
O1137       O  0.52633084  0.76384210  0.61812709    -0.79700
Zn1138     Zn  0.96616438  0.73574386  0.54234301     1.55700
O1139       O  0.53695974  0.82562059  0.47300221    -0.81100
Cd1140     Cd  0.53528032  0.77102867  0.54273290     1.59700
Cd1141     Cd  0.99907841  0.72055569  0.45259929     1.59600
O1142       O  0.56196989  0.75453122  0.52217733    -0.81100
O1143       O  0.99945522  0.75267548  0.49845899    -1.91600
Cd1144     Cd  0.99890324  0.78438011  0.45825469     1.59900
O1145       O  0.53852991  0.71953159  0.46104329    -0.81000
O1146       O  0.96074074  0.78685061  0.47331864    -0.79700
C1147       C  0.94098980  0.67292051  0.49608236     0.82900
C1148       C  0.00158702  0.75074413  0.64023592     0.82500
O1149       O  0.94057212  0.75321050  0.53183048    -0.78600
C1150       C  0.55866737  0.83388218  0.50390483     0.83300
O1151       O  0.94095292  0.69274202  0.52557186    -0.78700
C1152       C  0.56111196  0.73548055  0.48973111     0.83500
C1153       C  0.49660802  0.75159462  0.35694626     0.83800
O1154       O  0.49632077  0.72991734  0.37828363    -0.81200
O1155       O  0.81135745  0.55806640  0.97496741    -0.78700
C1156       C  0.75107308  0.49840270  0.86107374     0.82400
O1157       O  0.71507426  0.53568297  0.03472544    -0.79800
O1158       O  0.68933945  0.93674690  0.96735786    -0.81300
O1159       O  0.78497305  0.96067711  0.03290920    -0.81100
O1160       O  0.82415156  0.53602157  0.03150630    -0.79700
Zn1161     Zn  0.76779113  0.53309556  0.96172386     1.55700
O1162       O  0.75233657  0.93643657  0.97007085    -0.81100
Cd1163     Cd  0.78287312  0.49926005  0.04482203     1.59700
Cd1164     Cd  0.71873739  0.49803449  0.04459899     1.59600
O1165       O  0.77332859  0.50132395  0.11981562    -0.81100
O1166       O  0.75095938  0.49856112  0.00178543    -1.91600
Cd1167     Cd  0.73407066  0.96254263  0.95567279     1.59900
O1168       O  0.72924432  0.49847735  0.11990217    -0.81000
O1169       O  0.74006972  0.97321597  0.88083268    -0.79700
C1170       C  0.72992053  0.55753232  0.00675101     0.82900
C1171       C  0.83084991  0.55735550  0.00258503     0.82500
O1172       O  0.76159971  0.52248859  0.88782350    -0.78600
C1173       C  0.77121094  0.93822446  0.00235080     0.83300
O1174       O  0.74996660  0.55847019  0.97810886    -0.78700
C1175       C  0.75155562  0.00042287  0.14331141     0.83500
C1176       C  0.67038584  0.93832690  0.99573579     0.83800
O1177       O  0.67781373  0.96014060  0.02744189    -0.81200
O1178       O  0.75215219  0.94547161  0.53149417    -0.78700
C1179       C  0.74872377  0.00482649  0.64517544     0.82400
O1180       O  0.67647835  0.96538400  0.47177316    -0.79800
O1181       O  0.74744268  0.56597823  0.53751336    -0.81300
O1182       O  0.82128221  0.54201744  0.47620423    -0.81100
O1183       O  0.78510739  0.96709465  0.47149280    -0.79700
Zn1184     Zn  0.73240099  0.96961581  0.54472619     1.55700
O1185       O  0.81136524  0.56643563  0.53696605    -0.81100
Cd1186     Cd  0.78067953  0.00413642  0.46069110     1.59700
Cd1187     Cd  0.71727512  0.00365389  0.46107397     1.59600
O1188       O  0.77056456  0.50385845  0.38545055    -0.81100
O1189       O  0.74905026  0.00414261  0.50428308    -1.91600
Cd1190     Cd  0.76661403  0.54045118  0.55021051     1.59900
O1191       O  0.72762636  0.50336984  0.38591461    -0.81000
O1192       O  0.76102400  0.53002383  0.62523122    -0.79700
C1193       C  0.66985479  0.94374020  0.50002720     0.82900
C1194       C  0.77202508  0.94643902  0.50233634     0.82500
O1195       O  0.73722770  0.98060308  0.61862424    -0.78600
C1196       C  0.82947865  0.56423222  0.50718081     0.83300
O1197       O  0.68908465  0.94337155  0.52890107    -0.78700
C1198       C  0.74895210  0.50340317  0.36223640     0.83500
C1199       C  0.72762190  0.56379940  0.50694851     0.83800
O1200       O  0.71406952  0.54165933  0.47560645    -0.81200
C1201       C  0.75117936  0.50000403  0.80580561    -0.06300
C1202       C  0.74412095  0.52010701  0.78492313    -0.17400
C1203       C  0.74246071  0.52178594  0.73280242     0.10900
C1204       C  0.74852100  0.50332011  0.70044646    -0.06200
C1205       C  0.75560868  0.98325266  0.72133778    -0.17400
C1206       C  0.75750907  0.98175270  0.77343113     0.10900
S1207       S  0.73108963  0.54683628  0.71028557    -0.32400
S1208       S  0.76998214  0.95755348  0.79593724    -0.32400
H1209       H  0.78699631  0.97679996  0.83648985     0.29000
H1210       H  0.71466989  0.52846052  0.66853633     0.28900
H1211       H  0.73900493  0.53405255  0.80943487     0.19500
H1212       H  0.76080409  0.96936623  0.69682165     0.19500
C1213       C  0.75171656  0.50136907  0.19937937    -0.06300
C1214       C  0.72454564  0.49131079  0.22381990    -0.17400
C1215       C  0.72287676  0.49209071  0.27629548     0.10900
C1216       C  0.74902078  0.50303089  0.30622686    -0.06200
C1217       C  0.77622808  0.01319289  0.28184103    -0.17400
C1218       C  0.77790795  0.01239639  0.22932543     0.10900
S1219       S  0.68642058  0.47747204  0.30216448    -0.32400
S1220       S  0.81437059  0.02678140  0.20351396    -0.32400
H1221       H  0.80809015  0.99865179  0.18372656     0.29000
H1222       H  0.69252838  0.50554000  0.32196457     0.28900
H1223       H  0.70414963  0.48251397  0.20186021     0.19500
H1224       H  0.79658714  0.02192383  0.30389545     0.19500
C1225       C  0.58390842  0.86479072  0.50458562    -0.06300
C1226       C  0.59445630  0.87834030  0.45855079    -0.17400
C1227       C  0.62211666  0.90441012  0.45568839     0.10900
C1228       C  0.63928056  0.91798341  0.50011975    -0.06200
C1229       C  0.62784667  0.90531590  0.54637857    -0.17400
C1230       C  0.60047567  0.87917513  0.54919489     0.10900
S1231       S  0.63543662  0.91728693  0.39387059    -0.32400
S1232       S  0.58816047  0.86526102  0.61095642    -0.32400
H1233       H  0.55773258  0.85285313  0.59973167     0.29000
H1234       H  0.66455916  0.92340999  0.40346519     0.28900
H1235       H  0.58218898  0.86731597  0.42399286     0.19500
H1236       H  0.64059724  0.91571575  0.58081520     0.19500
C1237       C  0.86056660  0.58899644  0.50674629    -0.06300
C1238       C  0.87519294  0.59642726  0.46049739    -0.17400
C1239       C  0.90205836  0.62308201  0.45569797     0.10900
C1240       C  0.91526544  0.64243679  0.49846572    -0.06200
C1241       C  0.90169197  0.63377068  0.54531165    -0.17400
C1242       C  0.87477116  0.60744381  0.55002243     0.10900
S1243       S  0.91648678  0.63232889  0.39333279    -0.32400
S1244       S  0.85981355  0.59900523  0.61237373    -0.32400
H1245       H  0.84741800  0.56804381  0.60514478     0.29000
H1246       H  0.92091853  0.66132845  0.39767394     0.28900
H1247       H  0.86455780  0.58249973  0.42696138     0.19500
H1248       H  0.91186835  0.64805268  0.57871005     0.19500
C1249       C  0.49928619  0.74846803  0.80191915    -0.06300
C1250       C  0.52173199  0.74639196  0.77585590    -0.17400
C1251       C  0.52253437  0.74600911  0.72324689     0.10900
C1252       C  0.00093593  0.74873546  0.69561123    -0.06200
C1253       C  0.97833618  0.75049332  0.72167047    -0.17400
C1254       C  0.97742834  0.75073401  0.77418555     0.10900
S1255       S  0.55060326  0.74020098  0.69389632    -0.32400
S1256       S  0.94874453  0.75570769  0.80318239    -0.32400
H1257       H  0.96742754  0.77583127  0.84151140     0.29000
H1258       H  0.53196232  0.72140487  0.65427769     0.28900
H1259       H  0.53828478  0.74407973  0.79656316     0.19500
H1260       H  0.96174969  0.75277833  0.70102428     0.19500
C1261       C  0.00023486  0.75197100  0.19531939    -0.06300
C1262       C  0.98046052  0.72581324  0.21901829    -0.17400
C1263       C  0.97781507  0.72538412  0.27136801     0.10900
C1264       C  0.49604736  0.75141740  0.30132619    -0.06200
C1265       C  0.51556865  0.77769612  0.27760343    -0.17400
C1266       C  0.51808465  0.77818500  0.22517575     0.10900
S1267       S  0.94952757  0.69141867  0.29722050    -0.32400
S1268       S  0.54571328  0.81245515  0.19913205    -0.32400
H1269       H  0.55428276  0.79873212  0.16124765     0.29000
H1270       H  0.94218262  0.70553582  0.33627991     0.28900
H1271       H  0.96621611  0.70576788  0.19646864     0.19500
H1272       H  0.52983144  0.79772300  0.30016740     0.19500
C1273       C  0.58521495  0.85852048  0.99827617    -0.06300
C1274       C  0.60127821  0.86653458  0.95356586    -0.17400
C1275       C  0.62770574  0.89351466  0.95026255     0.10900
C1276       C  0.63929495  0.91316829  0.99322187    -0.06200
C1277       C  0.62203427  0.90639369  0.03672864    -0.17400
C1278       C  0.59532792  0.87931741  0.03988385     0.10900
S1279       S  0.64528396  0.90124144  0.88980661    -0.32400
S1280       S  0.57687396  0.87179556  0.09936305    -0.32400
H1281       H  0.57458326  0.84377491  0.10199600     0.29000
H1282       H  0.65536778  0.93192976  0.89389386     0.28900
H1283       H  0.59331941  0.85141070  0.92064247     0.19500
H1284       H  0.63035906  0.92132130  0.06984078     0.19500
C1285       C  0.86168782  0.58246762  0.00033610    -0.06300
C1286       C  0.87124905  0.59608426  0.95414960    -0.17400
C1287       C  0.89831894  0.62236381  0.95016666     0.10900
C1288       C  0.91637582  0.63605777  0.99366723    -0.06200
C1289       C  0.90809233  0.62118512  0.03897080    -0.17400
C1290       C  0.88086737  0.59479950  0.04297319     0.10900
S1291       S  0.90825894  0.63728631  0.88846502    -0.32400
S1292       S  0.87084846  0.57988231  0.10451806    -0.32400
H1293       H  0.84227265  0.57639163  0.10256644     0.29000
H1294       H  0.93897202  0.64921379  0.89592644     0.28900
H1295       H  0.85718599  0.58642192  0.92077464     0.19500
H1296       H  0.92177897  0.63136531  0.07258584     0.19500
C1297       C  0.77894909  0.92215573  0.50369653    -0.06300
C1298       C  0.77973489  0.90790994  0.45821516    -0.17400
C1299       C  0.77908956  0.88060238  0.45763299     0.10900
C1300       C  0.77862869  0.86758498  0.50361383    -0.06200
C1301       C  0.78000203  0.88303306  0.54903794    -0.17400
C1302       C  0.78048686  0.91018321  0.54957400     0.10900
S1303       S  0.77555772  0.86211438  0.39708880    -0.32400
S1304       S  0.78279949  0.92834275  0.61009010    -0.32400
H1305       H  0.79799515  0.95747282  0.59297151     0.29000
H1306       H  0.75282663  0.83414484  0.41153503     0.28900
H1307       H  0.77841122  0.91683533  0.42287345     0.19500
H1308       H  0.78009190  0.87356295  0.58450057     0.19500
C1309       C  0.72167747  0.58874192  0.50635938    -0.06300
C1310       C  0.72217894  0.60097289  0.46005491    -0.17400
C1311       C  0.72382324  0.62863725  0.45792827     0.10900
C1312       C  0.72391509  0.64405232  0.50307612    -0.06200
C1313       C  0.72157649  0.63090352  0.54912797    -0.17400
C1314       C  0.72017869  0.60341613  0.55124124     0.10900
S1315       S  0.72888325  0.64431934  0.39698491    -0.32400
S1316       S  0.71663094  0.58833530  0.61237241    -0.32400
H1317       H  0.70140104  0.55831892  0.59510358     0.29000
H1318       H  0.75043106  0.67335416  0.41337224     0.28900
H1319       H  0.72369044  0.59006238  0.42544568     0.19500
H1320       H  0.72127568  0.64238902  0.58391351     0.19500
C1321       C  0.64255779  0.73471288  0.49380779    -0.06300
C1322       C  0.64223950  0.76077477  0.48396288    -0.17400
C1323       C  0.61570061  0.76075011  0.47857795     0.10900
C1324       C  0.58848595  0.73414084  0.48417129    -0.06200
C1325       C  0.58852145  0.70763492  0.49205973    -0.17400
C1326       C  0.61540097  0.70769996  0.49736194     0.10900
S1327       S  0.61810245  0.79569314  0.46535373    -0.32400
S1328       S  0.61360601  0.67335476  0.51230991    -0.32400
H1329       H  0.63965544  0.68647655  0.54226449     0.29000
H1330       H  0.59129351  0.78314942  0.43751416     0.28900
H1331       H  0.66298462  0.78146185  0.48026909     0.19500
H1332       H  0.56769641  0.68727955  0.49714905     0.19500
C1333       C  0.91264912  0.77415966  0.50432556    -0.06300
C1334       C  0.88580538  0.74731897  0.50792212    -0.17400
C1335       C  0.85864140  0.74627043  0.50682389     0.10900
C1336       C  0.85780316  0.77293970  0.50397964    -0.06200
C1337       C  0.88456239  0.79992852  0.49941840    -0.17400
C1338       C  0.91202354  0.80084526  0.49994424     0.10900
S1339       S  0.82587506  0.70973324  0.50630095    -0.32400
S1340       S  0.94527931  0.83663962  0.49751815    -0.32400
H1341       H  0.96208476  0.82997068  0.53020341     0.29000
H1342       H  0.80999106  0.71601867  0.47091381     0.28900
H1343       H  0.88586714  0.72655484  0.50988408     0.19500
H1344       H  0.88413535  0.82046893  0.49703466     0.19500
C1345       C  0.74699027  0.74791575  0.80883433    -0.06300
C1346       C  0.75107502  0.77423827  0.78875547    -0.17400
C1347       C  0.75160176  0.77755923  0.73672299     0.10900
C1348       C  0.74794775  0.75397029  0.70348004    -0.06200
C1349       C  0.74356218  0.72752969  0.72371295    -0.17400
C1350       C  0.74311804  0.72427432  0.77572517     0.10900
S1351       S  0.75811757  0.81279251  0.71558867    -0.32400
S1352       S  0.73870973  0.68991361  0.79724643    -0.32400
H1353       H  0.75841136  0.70302980  0.83866395     0.29000
H1354       H  0.77764216  0.81467879  0.67731610     0.28900
H1355       H  0.75409434  0.79252812  0.81395391     0.19500
H1356       H  0.74064330  0.70920887  0.69871035     0.19500
C1357       C  0.74991571  0.74750568  0.20325418    -0.06300
C1358       C  0.77685395  0.75731987  0.22924389    -0.17400
C1359       C  0.77807647  0.75787732  0.28190020     0.10900
C1360       C  0.75189667  0.74920799  0.30950221    -0.06200
C1361       C  0.72484073  0.73838527  0.28328834    -0.17400
C1362       C  0.72352021  0.73703175  0.23072667     0.10900
S1363       S  0.81337724  0.76856305  0.31126684    -0.32400
S1364       S  0.68732427  0.72055983  0.20114740    -0.32400
H1365       H  0.69394946  0.70754043  0.15940782     0.29000
H1366       H  0.80139983  0.74802124  0.34950481     0.28900
H1367       H  0.79708857  0.76459224  0.20837057     0.19500
H1368       H  0.70449921  0.73096010  0.30390721     0.19500
C1369       C  0.77564061  0.85821856  0.00594783    -0.06300
C1370       C  0.77570133  0.87312342  0.05118562    -0.17400
C1371       C  0.77563636  0.89997030  0.05134167     0.10900
C1372       C  0.77600404  0.91266125  0.00516901    -0.06200
C1373       C  0.77771438  0.89865448  0.96004991    -0.17400
C1374       C  0.77738365  0.87159330  0.95983021     0.10900
S1375       S  0.77245271  0.91537432  0.11146364    -0.32400
S1376       S  0.77676451  0.85430636  0.89926923    -0.32400
H1377       H  0.75341416  0.82598199  0.91076858     0.29000
H1378       H  0.75031220  0.92126835  0.09529034     0.28900
H1379       H  0.77437493  0.86305708  0.08666394     0.19500
H1380       H  0.77797071  0.90821578  0.92448933     0.19500
C1381       C  0.72394120  0.63687568  0.00303933    -0.06300
C1382       C  0.71904302  0.62236517  0.04845521    -0.17400
C1383       C  0.71940008  0.59565739  0.05083337     0.10900
C1384       C  0.72456342  0.58294040  0.00663436    -0.06200
C1385       C  0.72778077  0.59672832  0.96084810    -0.17400
C1386       C  0.72787806  0.62355123  0.95865538     0.10900
S1387       S  0.71543278  0.58037298  0.11184470    -0.32400
S1388       S  0.73568025  0.64081261  0.89883074    -0.32400
H1389       H  0.75538423  0.66975052  0.91836114     0.29000
H1390       H  0.73956098  0.57549224  0.10656982     0.28900
H1391       H  0.71622474  0.63261678  0.08276576     0.19500
H1392       H  0.73166355  0.58721325  0.92662075     0.19500
C1393       C  0.58371143  0.72076255  0.99900030    -0.06300
C1394       C  0.59659786  0.72187762  0.04577318    -0.17400
C1395       C  0.62335305  0.72182808  0.04909076     0.10900
C1396       C  0.63782146  0.72058886  0.00464960    -0.06200
C1397       C  0.62387745  0.71741245  0.95790507    -0.17400
C1398       C  0.59705567  0.71747997  0.95460980     0.10900
S1399       S  0.63807661  0.72399635  0.11125515    -0.32400
S1400       S  0.58127280  0.71379223  0.89270019    -0.32400
H1401       H  0.55155186  0.69903418  0.90798891     0.29000
H1402       H  0.65093637  0.70649819  0.09831495     0.28900
H1403       H  0.58645939  0.72416549  0.08005327     0.19500
H1404       H  0.63459059  0.71624674  0.92358149     0.19500
C1405       C  0.91403718  0.77299796  0.00337281    -0.06300
C1406       C  0.90136279  0.77464775  0.95802508    -0.17400
C1407       C  0.87420299  0.77402897  0.95708138     0.10900
C1408       C  0.85937205  0.77209557  0.00267418    -0.06200
C1409       C  0.87290538  0.77209850  0.04824653    -0.17400
C1410       C  0.89983874  0.77227024  0.04908858     0.10900
S1411       S  0.85865846  0.77321767  0.89620189    -0.29400
S1412       S  0.91352866  0.76903296  0.10926864    -0.32400
H1413       H  0.92117919  0.74784467  0.09211412     0.29000
H1414       H  0.83010913  0.74970951  0.90643577     0.28900
H1415       H  0.91204091  0.77501146  0.92279048     0.19500
H1416       H  0.86175949  0.77064809  0.08339573     0.19500
loop_ 
_geom_bond_atom_site_label_1 
_geom_bond_atom_site_label_2 
_geom_bond_distance 
_geom_bond_site_symmetry_2 
_ccdc_geom_bond_type 
O1           C17   1.274       .  A
O1           Zn7   2.009       .  S
C2           O18   1.272       .  A
C2           O15   1.274       .  A
C2          C295   1.475       .  S
O3           C16   1.277   1_556  A
O3          Cd10   2.086       .  S
O4           C22   1.273       .  A
O4          Cd13   2.055       .  S
O5           C19   1.273   1_556  A
O5           Cd9   2.064       .  S
O6           C17   1.274   1_556  A
O6           Cd9   2.071       .  S
Zn7          O18   2.015       .  S
Zn7          O20   2.004       .  S
Zn7          O12   1.939       .  S
O8           C19   1.275       .  A
O8          Cd13   2.064       .  S
Cd9          O11   2.061       .  S
Cd9          O12   2.004   1_556  S
Cd10         O14   2.088       .  S
Cd10         O23   2.092       .  S
Cd10         O12   2.015   1_556  S
O11          C21   1.273       .  A
O12         Cd13   1.991       .  S
Cd13         O15   2.070       .  S
O14          C21   1.277       .  A
C16          O20   1.273       .  A
C16         C319   1.474       .  S
C17         C346   1.478       .  S
C19         C307   1.476       .  S
C21         C283   1.477       .  S
C22          O23   1.278   1_554  A
C22         C334   1.481       .  S
O24          C40   1.272       .  A
O24         Zn30   1.986       .  S
C25          O41   1.273       .  A
C25          O38   1.275       .  A
C25         C286   1.482       .  S
O26          C39   1.274       .  A
O26         Cd33   2.077       .  S
O27          C45   1.274       .  A
O27         Cd36   2.055       .  S
O28          C42   1.278       .  A
O28         Cd32   2.093       .  S
O29          C40   1.276       .  A
O29         Cd32   2.087       .  S
Zn30         O41   2.006       .  S
Zn30         O43   2.006       .  S
Zn30         O35   1.925       .  S
O31          C42   1.275       .  A
O31         Cd36   2.065       .  S
Cd32         O34   2.073       .  S
Cd32         O35   2.016       .  S
Cd33         O37   2.064       .  S
Cd33         O46   2.077       .  S
Cd33         O35   2.012       .  S
O34          C44   1.275       .  A
O35         Cd36   1.991       .  S
Cd36         O38   2.080       .  S
O37          C44   1.275       .  A
C39          O43   1.272       .  A
C39         C250   1.477       .  S
C40         C274   1.477       .  S
C42         C238   1.483       .  S
C44         C298   1.479       .  S
C45          O46   1.275       .  A
C45         C259   1.470       .  S
O47          C63   1.273       .  A
O47         Zn53   2.013       .  S
C48          O64   1.274   1_655  A
C48         O769   1.271       .  A
C48         C187   1.479       .  S
O49          C62   1.275   1_554  A
O49         Cd56   2.080       .  S
O50          C68   1.272   1_556  A
O50         Cd59   2.052       .  S
O51          C65   1.276   1_554  A
O51        Cd763   2.079       .  S
O52          C63   1.275   1_554  A
O52         Cd55   2.078       .  S
Zn53         O64   2.019       .  S
Zn53         O66   2.000       .  S
Zn53         O58   1.933       .  S
O54          C65   1.272       .  A
O54         Cd59   2.048       .  S
Cd55        O759   2.079   1_455  S
Cd55        O765   2.069   1_455  S
Cd55         O58   2.006   1_554  S
Cd56        O768   2.069       .  S
Cd56        O777   2.083   1_455  S
Cd56         O58   2.011   1_554  S
O57          C67   1.276       .  A
O57        Cd763   2.069       .  S
O58        Cd767   1.984   1_455  S
Cd59         O61   2.053       .  S
Cd59        O766   1.984       .  S
O60          C67   1.275       .  A
O60        Cd764   2.069       .  S
O61         C756   1.271       .  A
C62          O66   1.274       .  A
C62         C211   1.484       .  S
C63         C331   1.478       .  S
C65         C226   1.480       .  S
C67         C199   1.477       .  S
C68          O69   1.276       .  A
C68         C343   1.474       .  S
O69        Cd764   2.083       .  S
O70          C86   1.272       .  A
O70         Zn76   2.010       .  S
C71          O87   1.271       .  A
C71          O84   1.276       .  A
C71         C271   1.478       .  S
O72          C85   1.276       .  A
O72         Cd79   2.091       .  S
O73          C91   1.276       .  A
O73        Cd790   2.076       .  S
O74          C88   1.273       .  A
O74         Cd78   2.049       .  S
O75         C794   1.271       .  A
O75         Cd78   2.063       .  S
Zn76         O87   1.980       .  S
Zn76         O89   1.975       .  S
Zn76         O81   1.918       .  S
O77          C88   1.277       .  A
O77        Cd790   2.087   1_455  S
Cd78         O80   2.030       .  S
Cd78        O789   1.980   1_455  S
Cd79        O791   2.096       .  S
Cd79        O800   2.078       .  S
Cd79         O81   2.019       .  S
O80          C90   1.270       .  A
O81         Cd82   2.015       .  S
O81        Cd786   1.980       .  S
Cd82         O84   2.091       .  S
Cd82        O781   2.076       .  S
Cd82        O785   2.087       .  S
O83          C90   1.277       .  A
O83        Cd787   2.096   1_455  S
C85          O89   1.270       .  A
C85         C178   1.480       .  S
C86         O783   1.271       .  A
C86         C190   1.480       .  S
C88         C163   1.480       .  S
C90         C262   1.469       .  S
C91          O92   1.277       .  A
C91         C202   1.479       .  S
O92        Cd787   2.078       .  S
O93         C109   1.272   1_556  A
O93         Zn99   1.993       .  S
C94         O110   1.272   1_565  A
C94         O461   1.274       .  A
C94         C139   1.476   1_565  S
O95         C108   1.275       .  A
O95        Cd102   2.088   1_545  S
O96         C114   1.273       .  A
O96        Cd105   2.054       .  S
O97         C111   1.275       .  A
O97        Cd455   2.075       .  S
O98         C109   1.275       .  A
O98        Cd101   2.081   1_545  S
Zn99        O110   2.002       .  S
Zn99        O112   1.993       .  S
Zn99        O104   1.924   1_546  S
O100        C111   1.274   1_556  A
O100       Cd105   2.059       .  S
Cd101       O103   2.065   1_565  S
Cd101       O451   2.075       .  S
Cd101       O104   2.007       .  S
Cd102       O106   2.075       .  S
Cd102       O469   2.087       .  S
Cd102       O104   2.013       .  S
O103        C467   1.273       .  A
O104       Cd459   1.988   1_554  S
Cd105       O107   2.069       .  S
Cd105       O458   1.988   1_556  S
O106        C467   1.278   1_565  A
O107        C448   1.274       .  A
C108        O112   1.272   1_554  A
C108        C322   1.482       .  S
C109        C223   1.480       .  S
C111        C310   1.476       .  S
C113        O457   1.273       .  A
C113        O460   1.278       .  A
C113        C505   1.490       .  S
C114        O115   1.277   1_556  A
C114        C214   1.486       .  S
O115       Cd456   2.087       .  S
O116        C132   1.272       .  A
O116       Zn122   2.004       .  S
C117        O133   1.272       .  A
C117        O484   1.274       .  A
C117        C496   1.475       .  S
O118        C131   1.276       .  A
O118       Cd125   2.087       .  S
O119        C137   1.274       .  A
O119       Cd128   2.060       .  S
O120        C134   1.275       .  A
O120       Cd478   2.070       .  S
O121        C132   1.275       .  A
O121       Cd124   2.083       .  S
Zn122       O133   2.005       .  S
Zn122       O135   2.001       .  S
Zn122       O127   1.930       .  S
O123        C134   1.275       .  A
O123       Cd128   2.063       .  S
Cd124       O474   2.070       .  S
Cd124       O480   2.069       .  S
Cd124       O127   2.010       .  S
Cd125       O483   2.070       .  S
Cd125       O492   2.086       .  S
Cd125       O127   2.008       .  S
O126        C136   1.276       .  A
O126       Cd478   2.069       .  S
O127       Cd482   1.995       .  S
Cd128       O130   2.070       .  S
Cd128       O481   1.995       .  S
O129        C136   1.274       .  A
O129       Cd479   2.070       .  S
O130        C471   1.274       .  A
C131        O135   1.273       .  A
C131        C166   1.480       .  S
C132        C235   1.479       .  S
C134        C175   1.480       .  S
C136        C154   1.489       .  S
C137        O138   1.277       .  A
C137        C247   1.478       .  S
O138       Cd479   2.086       .  S
C139        C140   1.405       .  A
C139        C498   1.412   1_545  A
C140        C141   1.398       .  A
C140        H149   1.084       .  S
C141        C142   1.413       .  A
C141        S145   1.803       .  S
C142        C471   1.475       .  S
C142        C497   1.404   1_545  A
C143        C144   1.398       .  A
C143        C496   1.404       .  A
C143        H150   1.084       .  S
C144        C493   1.412       .  A
C144        S146   1.803       .  S
S145        H148   1.407       .  S
S146        H147   1.407       .  S
C151        C467   1.490       .  S
C151        C152   1.406   1_545  A
C151        C510   1.418       .  A
C152        C153   1.398       .  A
C152        H161   1.084       .  S
C153        C154   1.417   1_565  A
C153        S157   1.800       .  S
C154        C509   1.406       .  A
C155        C156   1.399       .  A
C155        C508   1.406       .  A
C155        H162   1.084       .  S
C156        C505   1.418       .  A
C156        S158   1.801       .  S
S157        H160   1.408   1_565  S
S158        H159   1.408       .  S
C163        C164   1.405       .  A
C163        C168   1.414       .  A
C164        C165   1.403       .  A
C164        H173   1.084       .  S
C165        C166   1.415       .  A
C165        S169   1.802       .  S
C166        C167   1.403       .  A
C167        C168   1.396       .  A
C167        H174   1.085       .  S
C168        S170   1.805       .  S
S169        H172   1.407       .  S
S170        H171   1.407       .  S
C175        C176   1.407       .  A
C175        C180   1.413       .  A
C176        C177   1.401       .  A
C176        H185   1.084       .  S
C177        C178   1.414       .  A
C177        S181   1.800       .  S
C178        C179   1.405       .  A
C179        C180   1.394       .  A
C179        H186   1.085       .  S
C180        S182   1.804       .  S
S181        H184   1.407       .  S
S182        H183   1.407       .  S
C187        C188   1.404   1_655  A
C187        C900   1.416       .  A
C188        C189   1.399       .  A
C188        H197   1.084       .  S
C189        C898   1.415       .  A
C189        S193   1.803       .  S
C190        C191   1.404       .  A
C190        C897   1.415       .  A
C191        C192   1.397       .  A
C191        H198   1.084       .  S
C192        C895   1.416       .  A
C192        S194   1.804       .  S
S193        H196   1.407       .  S
S194        H195   1.407       .  S
C199        C200   1.403       .  A
C199        C912   1.414       .  A
C200        C201   1.399       .  A
C200        H209   1.083       .  S
C201        C910   1.413       .  A
C201        S205   1.801       .  S
C202        C203   1.404   1_655  A
C202        C909   1.413       .  A
C203        C204   1.400       .  A
C203        H210   1.083       .  S
C204        C907   1.414       .  A
C204        S206   1.802       .  S
S205        H208   1.407       .  S
S206        H207   1.407       .  S
C211        C212   1.404       .  A
C211        C216   1.417   1_556  A
C212        C213   1.394       .  A
C212        H221   1.085       .  S
C213        C214   1.416       .  A
C213        S217   1.805       .  S
C214        C215   1.406   1_556  A
C215        C216   1.403       .  A
C215        H222   1.084       .  S
C216        S218   1.800       .  S
S217        H220   1.407       .  S
S218        H219   1.406       .  S
C223        C224   1.404   1_554  A
C223        C228   1.415       .  A
C224        C225   1.395       .  A
C224        H233   1.085       .  S
C225        C226   1.414       .  A
C225        S229   1.805       .  S
C226        C227   1.405   1_556  A
C227        C228   1.401       .  A
C227        H234   1.084       .  S
C228        S230   1.802       .  S
S229        H232   1.407       .  S
S230        H231   1.407       .  S
C235        C236   1.403       .  A
C235        C240   1.413       .  A
C236        C237   1.403       .  A
C236        H245   1.083       .  S
C237        C238   1.417       .  A
C237        S241   1.802       .  S
C238        C239   1.405       .  A
C239        C240   1.399       .  A
C239        H246   1.083       .  S
C240        S242   1.805       .  S
S241        H244   1.407       .  S
S242        H243   1.407       .  S
C247        C248   1.404       .  A
C247        C252   1.413       .  A
C248        C249   1.402       .  A
C248        H257   1.085       .  S
C249        C250   1.415       .  A
C249        S253   1.804       .  S
C250        C251   1.403       .  A
C251        C252   1.398       .  A
C251        H258   1.085       .  S
C252        S254   1.803       .  S
S253        H256   1.407       .  S
S254        H255   1.407       .  S
C259        C260   1.400       .  A
C259        C264   1.414       .  A
C260        C261   1.390       .  A
C260        H269   1.085       .  S
C261        C262   1.412       .  A
C261        S265   1.808       .  S
C262        C263   1.404       .  A
C263        C264   1.406       .  A
C263        H270   1.084       .  S
C264        S266   1.803       .  S
S265        H268   1.407       .  S
S266        H267   1.406       .  S
C271        C272   1.402       .  A
C271        C276   1.414       .  A
C272        C273   1.389       .  A
C272        H281   1.085       .  S
C273        C274   1.415       .  A
C273        S277   1.808       .  S
C274        C275   1.406       .  A
C275        C276   1.407       .  A
C275        H282   1.084       .  S
C276        S278   1.801       .  S
S277        H280   1.408       .  S
S278        H279   1.407       .  S
C283        C284   1.404       .  A
C283        C288   1.411       .  A
C284        C285   1.400       .  A
C284        H293   1.085       .  S
C285        C286   1.414       .  A
C285        S289   1.803       .  S
C286        C287   1.407       .  A
C287        C288   1.399       .  A
C287        H294   1.085       .  S
C288        S290   1.802       .  S
S289        H292   1.407       .  S
S290        H291   1.406       .  S
C295        C296   1.403       .  A
C295        C300   1.412       .  A
C296        C297   1.401       .  A
C296        H305   1.084       .  S
C297        C298   1.415       .  A
C297        S301   1.803       .  S
C298        C299   1.403       .  A
C299        C300   1.397       .  A
C299        H306   1.084       .  S
C300        S302   1.801       .  S
S301        H304   1.407       .  S
S302        H303   1.407       .  S
C307        C308   1.403       .  A
C307        C312   1.415   1_554  A
C308        C309   1.398       .  A
C308        H317   1.083       .  S
C309        C310   1.414       .  A
C309        S313   1.803       .  S
C310        C311   1.404   1_554  A
C311        C312   1.399       .  A
C311        H318   1.084       .  S
C312        S314   1.804       .  S
S313        H316   1.407       .  S
S314        H315   1.407       .  S
C319        C320   1.405       .  A
C319        C324   1.410   1_554  A
C320        C321   1.403       .  A
C320        H329   1.084       .  S
C321        C322   1.415       .  A
C321        S325   1.802       .  S
C322        C323   1.406   1_554  A
C323        C324   1.396       .  A
C323        H330   1.084       .  S
C324        S326   1.803       .  S
S325        H328   1.407       .  S
S326        H327   1.407       .  S
C331        C332   1.402   1_556  A
C331        C336   1.415       .  A
C332        C333   1.398       .  A
C332        H341   1.084       .  S
C333        C334   1.415       .  A
C333        S337   1.801       .  S
C334        C335   1.404   1_554  A
C335        C336   1.402       .  A
C335        H342   1.083       .  S
C336        S338   1.803       .  S
S337        H340   1.407       .  S
S338        H339   1.407       .  S
C343        C344   1.404   1_554  A
C343        C348   1.412       .  A
C344        C345   1.399       .  A
C344        H353   1.084       .  S
C345        C346   1.415   1_556  A
C345        S349   1.803       .  S
C346        C347   1.405       .  A
C347        C348   1.399       .  A
C347        H354   1.083       .  S
C348        S350   1.803       .  S
S349        H352   1.407       .  S
S350        H351   1.407       .  S
O355        C371   1.274       .  A
O355       Zn361   2.009       .  S
C356        O372   1.272       .  A
C356        O369   1.274       .  A
C356        C649   1.475       .  S
O357        C370   1.277   1_556  A
O357       Cd364   2.086       .  S
O358        C376   1.273       .  A
O358       Cd367   2.055       .  S
O359        C373   1.273   1_556  A
O359       Cd363   2.064       .  S
O360        C371   1.274   1_556  A
O360       Cd363   2.071       .  S
Zn361       O372   2.015       .  S
Zn361       O374   2.004       .  S
Zn361       O366   1.939       .  S
O362        C373   1.275       .  A
O362       Cd367   2.064       .  S
Cd363       O365   2.061       .  S
Cd363       O366   2.004   1_556  S
Cd364       O368   2.088       .  S
Cd364       O377   2.092       .  S
Cd364       O366   2.015   1_556  S
O365        C375   1.273       .  A
O366       Cd367   1.991       .  S
Cd367       O369   2.070       .  S
O368        C375   1.277       .  A
C370        O374   1.273       .  A
C370        C673   1.474       .  S
C371        C700   1.478       .  S
C373        C661   1.476       .  S
C375        C637   1.477       .  S
C376        O377   1.278   1_554  A
C376        C688   1.481       .  S
O378        C394   1.272       .  A
O378       Zn384   1.986       .  S
C379        O395   1.273       .  A
C379        O392   1.275       .  A
C379        C640   1.482       .  S
O380        C393   1.274       .  A
O380       Cd387   2.077       .  S
O381        C399   1.274       .  A
O381       Cd390   2.055       .  S
O382        C396   1.278       .  A
O382       Cd386   2.093       .  S
O383        C394   1.276       .  A
O383       Cd386   2.087       .  S
Zn384       O395   2.006       .  S
Zn384       O397   2.006       .  S
Zn384       O389   1.925       .  S
O385        C396   1.275       .  A
O385       Cd390   2.065       .  S
Cd386       O388   2.073       .  S
Cd386       O389   2.016       .  S
Cd387       O391   2.064       .  S
Cd387       O400   2.077       .  S
Cd387       O389   2.012       .  S
O388        C398   1.275       .  A
O389       Cd390   1.991       .  S
Cd390       O392   2.080       .  S
O391        C398   1.275       .  A
C393        O397   1.272       .  A
C393        C604   1.477       .  S
C394        C628   1.477       .  S
C396        C592   1.483       .  S
C398        C652   1.479       .  S
C399        O400   1.275       .  A
C399        C613   1.470       .  S
O401        C417   1.273       .  A
O401       Zn407   2.013       .  S
C402        O418   1.274   1_655  A
C402       O1123   1.271       .  A
C402        C541   1.479       .  S
O403        C416   1.275   1_554  A
O403       Cd410   2.080       .  S
O404        C422   1.272   1_556  A
O404       Cd413   2.052       .  S
O405        C419   1.276   1_554  A
O405      Cd1117   2.079       .  S
O406        C417   1.275   1_554  A
O406       Cd409   2.078       .  S
Zn407       O418   2.019       .  S
Zn407       O420   2.000       .  S
Zn407       O412   1.933       .  S
O408        C419   1.272       .  A
O408       Cd413   2.048       .  S
Cd409      O1113   2.079   1_455  S
Cd409      O1119   2.069   1_455  S
Cd409       O412   2.006   1_554  S
Cd410      O1122   2.069       .  S
Cd410      O1131   2.083   1_455  S
Cd410       O412   2.011   1_554  S
O411        C421   1.276       .  A
O411      Cd1117   2.069       .  S
O412      Cd1121   1.984   1_455  S
Cd413       O415   2.053       .  S
Cd413      O1120   1.984       .  S
O414        C421   1.275       .  A
O414      Cd1118   2.069       .  S
O415       C1110   1.271       .  A
C416        O420   1.274       .  A
C416        C565   1.484       .  S
C417        C685   1.478       .  S
C419        C580   1.480       .  S
C421        C553   1.477       .  S
C422        O423   1.276       .  A
C422        C697   1.474       .  S
O423      Cd1118   2.083       .  S
O424        C440   1.272       .  A
O424       Zn430   2.010       .  S
C425        O441   1.271       .  A
C425        O438   1.276       .  A
C425        C625   1.478       .  S
O426        C439   1.276       .  A
O426       Cd433   2.091       .  S
O427        C445   1.276       .  A
O427      Cd1144   2.076       .  S
O428        C442   1.273       .  A
O428       Cd432   2.049       .  S
O429       C1148   1.271       .  A
O429       Cd432   2.063       .  S
Zn430       O441   1.980       .  S
Zn430       O443   1.975       .  S
Zn430       O435   1.918       .  S
O431        C442   1.277       .  A
O431      Cd1144   2.087   1_455  S
Cd432       O434   2.030       .  S
Cd432      O1143   1.980   1_455  S
Cd433      O1145   2.096       .  S
Cd433      O1154   2.078       .  S
Cd433       O435   2.019       .  S
O434        C444   1.270       .  A
O435      Cd1140   1.980       .  S
O435       Cd436   2.015       .  S
Cd436      O1135   2.076       .  S
Cd436      O1139   2.087       .  S
Cd436       O438   2.091       .  S
O437        C444   1.277       .  A
O437      Cd1141   2.096   1_455  S
C439        O443   1.270       .  A
C439        C532   1.480       .  S
C440       O1137   1.271       .  A
C440        C544   1.480       .  S
C442        C517   1.480       .  S
C444        C616   1.469       .  S
C445        O446   1.277       .  A
C445        C556   1.479       .  S
O446      Cd1141   2.078       .  S
O447        C463   1.272   1_556  A
O447       Zn453   1.993       .  S
C448        O464   1.272       .  A
C448        C493   1.476       .  S
O449        C462   1.275       .  A
O449       Cd456   2.088       .  S
O450        C468   1.273       .  A
O450       Cd459   2.054       .  S
O451        C465   1.275       .  A
O452        C463   1.275       .  A
O452       Cd455   2.081       .  S
Zn453       O464   2.002       .  S
Zn453       O466   1.993       .  S
Zn453       O458   1.924   1_556  S
O454        C465   1.274   1_556  A
O454       Cd459   2.059       .  S
Cd455       O457   2.065       .  S
Cd455       O458   2.007       .  S
Cd456       O460   2.075       .  S
Cd456       O458   2.013       .  S
Cd459       O461   2.069       .  S
C462        O466   1.272   1_554  A
C462        C676   1.482       .  S
C463        C577   1.480       .  S
C465        C664   1.476       .  S
C468        O469   1.277   1_556  A
C468        C568   1.486       .  S
O470        C486   1.272       .  A
O470       Zn476   2.004       .  S
C471        O487   1.272   1_545  A
O472        C485   1.276       .  A
O472       Cd479   2.087   1_565  S
O473        C491   1.274       .  A
O473       Cd482   2.060       .  S
O474        C488   1.275       .  A
O475        C486   1.275       .  A
O475       Cd478   2.083   1_565  S
Zn476       O487   2.005       .  S
Zn476       O489   2.001       .  S
Zn476       O481   1.930   1_565  S
O477        C488   1.275       .  A
O477       Cd482   2.063       .  S
Cd478       O481   2.010       .  S
Cd479       O481   2.008       .  S
O480        C490   1.276       .  A
Cd482       O484   2.070       .  S
O483        C490   1.274       .  A
C485        O489   1.273       .  A
C485        C520   1.480       .  S
C486        C589   1.479       .  S
C488        C529   1.480       .  S
C490        C508   1.489       .  S
C491        O492   1.277       .  A
C491        C601   1.478       .  S
C493        C494   1.405       .  A
C494        C495   1.398       .  A
C494        H503   1.084       .  S
C495        C496   1.413       .  A
C495        S499   1.803       .  S
C497        C498   1.398       .  A
C497        H504   1.084       .  S
C498        S500   1.803       .  S
S499        H502   1.407       .  S
S500        H501   1.407       .  S
C505        C506   1.406       .  A
C506        C507   1.398       .  A
C506        H515   1.084       .  S
C507        C508   1.417       .  A
C507        S511   1.800       .  S
C509        C510   1.399       .  A
C509        H516   1.084       .  S
C510        S512   1.801       .  S
S511        H514   1.408       .  S
S512        H513   1.408   1_545  S
C517        C518   1.405       .  A
C517        C522   1.414       .  A
C518        C519   1.403       .  A
C518        H527   1.084       .  S
C519        C520   1.415       .  A
C519        S523   1.802       .  S
C520        C521   1.403       .  A
C521        C522   1.396       .  A
C521        H528   1.085       .  S
C522        S524   1.805       .  S
S523        H526   1.407       .  S
S524        H525   1.407       .  S
C529        C530   1.407       .  A
C529        C534   1.413       .  A
C530        C531   1.401       .  A
C530        H539   1.084       .  S
C531        C532   1.414       .  A
C531        S535   1.800       .  S
C532        C533   1.405       .  A
C533        C534   1.394       .  A
C533        H540   1.085       .  S
C534        S536   1.804       .  S
S535        H538   1.407       .  S
S536        H537   1.407       .  S
C541        C542   1.404   1_655  A
C541       C1254   1.416       .  A
C542        C543   1.399       .  A
C542        H551   1.084       .  S
C543       C1252   1.415       .  A
C543        S547   1.803       .  S
C544       C1251   1.415       .  A
C544        C545   1.404       .  A
C545        C546   1.397       .  A
C545        H552   1.084       .  S
C546       C1249   1.416       .  A
C546        S548   1.804       .  S
S547        H550   1.407       .  S
S548        H549   1.407       .  S
C553        C554   1.403       .  A
C553       C1266   1.414       .  A
C554        C555   1.399       .  A
C554        H563   1.083       .  S
C555       C1264   1.413       .  A
C555        S559   1.801       .  S
C556       C1263   1.413       .  A
C556        C557   1.404   1_655  A
C557        C558   1.400       .  A
C557        H564   1.083       .  S
C558       C1261   1.414       .  A
C558        S560   1.802       .  S
S559        H562   1.407       .  S
S560        H561   1.407       .  S
C565        C566   1.404       .  A
C565        C570   1.417   1_556  A
C566        C567   1.394       .  A
C566        H575   1.085       .  S
C567        C568   1.416       .  A
C567        S571   1.805       .  S
C568        C569   1.406   1_556  A
C569        C570   1.403       .  A
C569        H576   1.084       .  S
C570        S572   1.800       .  S
S571        H574   1.407       .  S
S572        H573   1.406       .  S
C577        C578   1.404   1_554  A
C577        C582   1.415       .  A
C578        C579   1.395       .  A
C578        H587   1.085       .  S
C579        C580   1.414       .  A
C579        S583   1.805       .  S
C580        C581   1.405   1_556  A
C581        C582   1.401       .  A
C581        H588   1.084       .  S
C582        S584   1.802       .  S
S583        H586   1.407       .  S
S584        H585   1.407       .  S
C589        C590   1.403       .  A
C589        C594   1.413       .  A
C590        C591   1.403       .  A
C590        H599   1.083       .  S
C591        C592   1.417       .  A
C591        S595   1.802       .  S
C592        C593   1.405       .  A
C593        C594   1.399       .  A
C593        H600   1.083       .  S
C594        S596   1.805       .  S
S595        H598   1.407       .  S
S596        H597   1.407       .  S
C601        C602   1.404       .  A
C601        C606   1.413       .  A
C602        C603   1.402       .  A
C602        H611   1.085       .  S
C603        C604   1.415       .  A
C603        S607   1.804       .  S
C604        C605   1.403       .  A
C605        C606   1.398       .  A
C605        H612   1.085       .  S
C606        S608   1.803       .  S
S607        H610   1.407       .  S
S608        H609   1.407       .  S
C613        C614   1.400       .  A
C613        C618   1.414       .  A
C614        C615   1.390       .  A
C614        H623   1.085       .  S
C615        C616   1.412       .  A
C615        S619   1.808       .  S
C616        C617   1.404       .  A
C617        C618   1.406       .  A
C617        H624   1.084       .  S
C618        S620   1.803       .  S
S619        H622   1.407       .  S
S620        H621   1.406       .  S
C625        C626   1.402       .  A
C625        C630   1.414       .  A
C626        C627   1.389       .  A
C626        H635   1.085       .  S
C627        C628   1.415       .  A
C627        S631   1.808       .  S
C628        C629   1.406       .  A
C629        C630   1.407       .  A
C629        H636   1.084       .  S
C630        S632   1.801       .  S
S631        H634   1.408       .  S
S632        H633   1.407       .  S
C637        C638   1.404       .  A
C637        C642   1.411       .  A
C638        C639   1.400       .  A
C638        H647   1.085       .  S
C639        C640   1.414       .  A
C639        S643   1.803       .  S
C640        C641   1.407       .  A
C641        C642   1.399       .  A
C641        H648   1.085       .  S
C642        S644   1.802       .  S
S643        H646   1.407       .  S
S644        H645   1.406       .  S
C649        C650   1.403       .  A
C649        C654   1.412       .  A
C650        C651   1.401       .  A
C650        H659   1.084       .  S
C651        C652   1.415       .  A
C651        S655   1.803       .  S
C652        C653   1.403       .  A
C653        C654   1.397       .  A
C653        H660   1.084       .  S
C654        S656   1.801       .  S
S655        H658   1.407       .  S
S656        H657   1.407       .  S
C661        C662   1.403       .  A
C661        C666   1.415   1_554  A
C662        C663   1.398       .  A
C662        H671   1.083       .  S
C663        C664   1.414       .  A
C663        S667   1.803       .  S
C664        C665   1.404   1_554  A
C665        C666   1.399       .  A
C665        H672   1.084       .  S
C666        S668   1.804       .  S
S667        H670   1.407       .  S
S668        H669   1.407       .  S
C673        C674   1.405       .  A
C673        C678   1.410   1_554  A
C674        C675   1.403       .  A
C674        H683   1.084       .  S
C675        C676   1.415       .  A
C675        S679   1.802       .  S
C676        C677   1.406   1_554  A
C677        C678   1.396       .  A
C677        H684   1.084       .  S
C678        S680   1.803       .  S
S679        H682   1.407       .  S
S680        H681   1.407       .  S
C685        C686   1.402   1_556  A
C685        C690   1.415       .  A
C686        C687   1.398       .  A
C686        H695   1.084       .  S
C687        C688   1.415       .  A
C687        S691   1.801       .  S
C688        C689   1.404   1_554  A
C689        C690   1.402       .  A
C689        H696   1.083       .  S
C690        S692   1.803       .  S
S691        H694   1.407       .  S
S692        H693   1.407       .  S
C697        C698   1.404   1_554  A
C697        C702   1.412       .  A
C698        C699   1.399       .  A
C698        H707   1.084       .  S
C699        C700   1.415   1_556  A
C699        S703   1.803       .  S
C700        C701   1.405       .  A
C701        C702   1.399       .  A
C701        H708   1.083       .  S
C702        S704   1.803       .  S
S703        H706   1.407       .  S
S704        H705   1.407       .  S
O709        C725   1.274       .  A
O709       Zn715   2.009       .  S
C710        O726   1.272       .  A
C710        O723   1.274       .  A
C710       C1003   1.475       .  S
O711        C724   1.277   1_556  A
O711       Cd718   2.086       .  S
O712        C730   1.273       .  A
O712       Cd721   2.055       .  S
O713        C727   1.273   1_556  A
O713       Cd717   2.064       .  S
O714        C725   1.274   1_556  A
O714       Cd717   2.071       .  S
Zn715       O726   2.015       .  S
Zn715       O728   2.004       .  S
Zn715       O720   1.939       .  S
O716        C727   1.275       .  A
O716       Cd721   2.064       .  S
Cd717       O719   2.061       .  S
Cd717       O720   2.004   1_556  S
Cd718       O722   2.088       .  S
Cd718       O731   2.092       .  S
Cd718       O720   2.015   1_556  S
O719        C729   1.273       .  A
O720       Cd721   1.991       .  S
Cd721       O723   2.070       .  S
O722        C729   1.277       .  A
C724        O728   1.273       .  A
C724       C1027   1.474       .  S
C725       C1054   1.478       .  S
C727       C1015   1.476       .  S
C729        C991   1.477       .  S
C730        O731   1.278   1_554  A
C730       C1042   1.481       .  S
O732        C748   1.272       .  A
O732       Zn738   1.986       .  S
C733        O749   1.273       .  A
C733        O746   1.275       .  A
C733        C994   1.482       .  S
O734        C747   1.274       .  A
O734       Cd741   2.077       .  S
O735        C753   1.274       .  A
O735       Cd744   2.055       .  S
O736        C750   1.278       .  A
O736       Cd740   2.093       .  S
O737        C748   1.276       .  A
O737       Cd740   2.087       .  S
Zn738       O749   2.006       .  S
Zn738       O751   2.006       .  S
Zn738       O743   1.925       .  S
O739        C750   1.275       .  A
O739       Cd744   2.065       .  S
Cd740       O742   2.073       .  S
Cd740       O743   2.016       .  S
Cd741       O745   2.064       .  S
Cd741       O754   2.077       .  S
Cd741       O743   2.012       .  S
O742        C752   1.275       .  A
O743       Cd744   1.991       .  S
Cd744       O746   2.080       .  S
O745        C752   1.275       .  A
C747        O751   1.272       .  A
C747        C958   1.477       .  S
C748        C982   1.477       .  S
C750        C946   1.483       .  S
C752       C1006   1.479       .  S
C753        O754   1.275       .  A
C753        C967   1.470       .  S
O755        C771   1.273       .  A
O755       Zn761   2.013       .  S
C756        O772   1.274       .  A
C756        C895   1.479       .  S
O757        C770   1.275   1_554  A
O757       Cd764   2.080       .  S
O758        C776   1.272   1_556  A
O758       Cd767   2.052       .  S
O759        C773   1.276   1_554  A
O760        C771   1.275   1_554  A
O760       Cd763   2.078       .  S
Zn761       O772   2.019       .  S
Zn761       O774   2.000       .  S
Zn761       O766   1.933       .  S
O762        C773   1.272       .  A
O762       Cd767   2.048       .  S
Cd763       O766   2.006   1_554  S
Cd764       O766   2.011   1_554  S
O765        C775   1.276   1_655  A
Cd767       O769   2.053       .  S
O768        C775   1.275       .  A
C770        O774   1.274       .  A
C770        C919   1.484       .  S
C771       C1039   1.478       .  S
C773        C934   1.480       .  S
C775        C907   1.477       .  S
C776        O777   1.276       .  A
C776       C1051   1.474       .  S
O778        C794   1.272   1_655  A
O778       Zn784   2.010       .  S
C779        O795   1.271       .  A
C779        O792   1.276       .  A
C779        C979   1.478       .  S
O780        C793   1.276       .  A
O780       Cd787   2.091       .  S
O781        C799   1.276       .  A
O782        C796   1.273       .  A
O782       Cd786   2.049       .  S
O783       Cd786   2.063       .  S
Zn784       O795   1.980       .  S
Zn784       O797   1.975       .  S
Zn784       O789   1.918       .  S
O785        C796   1.277       .  A
Cd786       O788   2.030       .  S
Cd787       O789   2.019       .  S
O788        C798   1.270       .  A
O789       Cd790   2.015       .  S
Cd790       O792   2.091       .  S
O791        C798   1.277       .  A
C793        O797   1.270       .  A
C793        C886   1.480       .  S
C794        C898   1.480       .  S
C796        C871   1.480       .  S
C798        C970   1.469       .  S
C799        O800   1.277       .  A
C799        C910   1.479       .  S
O801        C817   1.272   1_556  A
O801       Zn807   1.993       .  S
C802        O818   1.272   1_565  A
C802       O1169   1.274       .  A
C802        C847   1.476   1_565  S
O803        C816   1.275       .  A
O803       Cd810   2.088   1_545  S
O804        C822   1.273       .  A
O804       Cd813   2.054       .  S
O805        C819   1.275       .  A
O805      Cd1163   2.075       .  S
O806        C817   1.275       .  A
O806       Cd809   2.081   1_545  S
Zn807       O818   2.002       .  S
Zn807       O820   1.993       .  S
Zn807       O812   1.924   1_546  S
O808        C819   1.274   1_556  A
O808       Cd813   2.059       .  S
Cd809      O1159   2.075       .  S
Cd809       O811   2.065   1_565  S
Cd809       O812   2.007       .  S
Cd810       O814   2.075       .  S
Cd810      O1177   2.087       .  S
Cd810       O812   2.013       .  S
O811       C1175   1.273       .  A
O812      Cd1167   1.988   1_554  S
Cd813       O815   2.069       .  S
Cd813      O1166   1.988   1_556  S
O814       C1175   1.278   1_565  A
O815       C1156   1.274       .  A
C816        O820   1.272   1_554  A
C816       C1030   1.482       .  S
C817        C931   1.480       .  S
C819       C1018   1.476       .  S
C821       O1165   1.273       .  A
C821       O1168   1.278       .  A
C821       C1213   1.490       .  S
C822        O823   1.277   1_556  A
C822        C922   1.486       .  S
O823      Cd1164   2.087       .  S
O824        C840   1.272       .  A
O824       Zn830   2.004       .  S
C825        O841   1.272       .  A
C825       O1192   1.274       .  A
C825       C1204   1.475       .  S
O826        C839   1.276       .  A
O826       Cd833   2.087       .  S
O827        C845   1.274       .  A
O827       Cd836   2.060       .  S
O828        C842   1.275       .  A
O828      Cd1186   2.070       .  S
O829        C840   1.275       .  A
O829       Cd832   2.083       .  S
Zn830       O841   2.005       .  S
Zn830       O843   2.001       .  S
Zn830       O835   1.930       .  S
O831        C842   1.275       .  A
O831       Cd836   2.063       .  S
Cd832      O1182   2.070       .  S
Cd832      O1188   2.069       .  S
Cd832       O835   2.010       .  S
Cd833      O1191   2.070       .  S
Cd833      O1200   2.086       .  S
Cd833       O835   2.008       .  S
O834        C844   1.276       .  A
O834      Cd1186   2.069       .  S
O835      Cd1190   1.995       .  S
Cd836       O838   2.070       .  S
Cd836      O1189   1.995       .  S
O837        C844   1.274       .  A
O837      Cd1187   2.070       .  S
O838       C1179   1.274       .  A
C839        O843   1.273       .  A
C839        C874   1.480       .  S
C840        C943   1.479       .  S
C842        C883   1.480       .  S
C844        C862   1.489       .  S
C845        O846   1.277       .  A
C845        C955   1.478       .  S
O846      Cd1187   2.086       .  S
C847        C848   1.405       .  A
C847       C1206   1.412   1_545  A
C848        C849   1.398       .  A
C848        H857   1.084       .  S
C849        C850   1.413       .  A
C849        S853   1.803       .  S
C850       C1179   1.475       .  S
C850       C1205   1.404   1_545  A
C851       C1204   1.404       .  A
C851        C852   1.398       .  A
C851        H858   1.084       .  S
C852       C1201   1.412       .  A
C852        S854   1.803       .  S
S853        H856   1.407       .  S
S854        H855   1.407       .  S
C859       C1175   1.490       .  S
C859        C860   1.406   1_545  A
C859       C1218   1.418       .  A
C860        C861   1.398       .  A
C860        H869   1.084       .  S
C861        C862   1.417   1_565  A
C861        S865   1.800       .  S
C862       C1217   1.406       .  A
C863       C1216   1.406       .  A
C863        C864   1.399       .  A
C863        H870   1.084       .  S
C864       C1213   1.418       .  A
C864        S866   1.801       .  S
S865        H868   1.408   1_565  S
S866        H867   1.408       .  S
C871        C872   1.405       .  A
C871        C876   1.414       .  A
C872        C873   1.403       .  A
C872        H881   1.084       .  S
C873        C874   1.415       .  A
C873        S877   1.802       .  S
C874        C875   1.403       .  A
C875        C876   1.396       .  A
C875        H882   1.085       .  S
C876        S878   1.805       .  S
S877        H880   1.407       .  S
S878        H879   1.407       .  S
C883        C884   1.407       .  A
C883        C888   1.413       .  A
C884        C885   1.401       .  A
C884        H893   1.084       .  S
C885        C886   1.414       .  A
C885        S889   1.800       .  S
C886        C887   1.405       .  A
C887        C888   1.394       .  A
C887        H894   1.085       .  S
C888        S890   1.804       .  S
S889        H892   1.407       .  S
S890        H891   1.407       .  S
C895        C896   1.404       .  A
C896        C897   1.399       .  A
C896        H905   1.084       .  S
C897        S901   1.803       .  S
C898        C899   1.404   1_455  A
C899        C900   1.397       .  A
C899        H906   1.084       .  S
C900        S902   1.804       .  S
S901        H904   1.407       .  S
S902        H903   1.407       .  S
C907        C908   1.403   1_455  A
C908        C909   1.399       .  A
C908        H917   1.083       .  S
C909        S913   1.801       .  S
C910        C911   1.404       .  A
C911        C912   1.400       .  A
C911        H918   1.083       .  S
C912        S914   1.802       .  S
S913        H916   1.407       .  S
S914        H915   1.407       .  S
C919        C920   1.404       .  A
C919        C924   1.417   1_556  A
C920        C921   1.394       .  A
C920        H929   1.085       .  S
C921        C922   1.416       .  A
C921        S925   1.805       .  S
C922        C923   1.406   1_556  A
C923        C924   1.403       .  A
C923        H930   1.084       .  S
C924        S926   1.800       .  S
S925        H928   1.407       .  S
S926        H927   1.406       .  S
C931        C932   1.404   1_554  A
C931        C936   1.415       .  A
C932        C933   1.395       .  A
C932        H941   1.085       .  S
C933        C934   1.414       .  A
C933        S937   1.805       .  S
C934        C935   1.405   1_556  A
C935        C936   1.401       .  A
C935        H942   1.084       .  S
C936        S938   1.802       .  S
S937        H940   1.407       .  S
S938        H939   1.407       .  S
C943        C944   1.403       .  A
C943        C948   1.413       .  A
C944        C945   1.403       .  A
C944        H953   1.083       .  S
C945        C946   1.417       .  A
C945        S949   1.802       .  S
C946        C947   1.405       .  A
C947        C948   1.399       .  A
C947        H954   1.083       .  S
C948        S950   1.805       .  S
S949        H952   1.407       .  S
S950        H951   1.407       .  S
C955        C956   1.404       .  A
C955        C960   1.413       .  A
C956        C957   1.402       .  A
C956        H965   1.085       .  S
C957        C958   1.415       .  A
C957        S961   1.804       .  S
C958        C959   1.403       .  A
C959        C960   1.398       .  A
C959        H966   1.085       .  S
C960        S962   1.803       .  S
S961        H964   1.407       .  S
S962        H963   1.407       .  S
C967        C968   1.400       .  A
C967        C972   1.414       .  A
C968        C969   1.390       .  A
C968        H977   1.085       .  S
C969        C970   1.412       .  A
C969        S973   1.808       .  S
C970        C971   1.404       .  A
C971        C972   1.406       .  A
C971        H978   1.084       .  S
C972        S974   1.803       .  S
S973        H976   1.407       .  S
S974        H975   1.406       .  S
C979        C980   1.402       .  A
C979        C984   1.414       .  A
C980        C981   1.389       .  A
C980        H989   1.085       .  S
C981        C982   1.415       .  A
C981        S985   1.808       .  S
C982        C983   1.406       .  A
C983        C984   1.407       .  A
C983        H990   1.084       .  S
C984        S986   1.801       .  S
S985        H988   1.408       .  S
S986        H987   1.407       .  S
C991        C992   1.404       .  A
C991        C996   1.411       .  A
C992        C993   1.400       .  A
C992       H1001   1.085       .  S
C993        C994   1.414       .  A
C993        S997   1.803       .  S
C994        C995   1.407       .  A
C995        C996   1.399       .  A
C995       H1002   1.085       .  S
C996        S998   1.802       .  S
S997       H1000   1.407       .  S
S998        H999   1.406       .  S
C1003      C1004   1.403       .  A
C1003      C1008   1.412       .  A
C1004      C1005   1.401       .  A
C1004      H1013   1.084       .  S
C1005      C1006   1.415       .  A
C1005      S1009   1.803       .  S
C1006      C1007   1.403       .  A
C1007      C1008   1.397       .  A
C1007      H1014   1.084       .  S
C1008      S1010   1.801       .  S
S1009      H1012   1.407       .  S
S1010      H1011   1.407       .  S
C1015      C1016   1.403       .  A
C1015      C1020   1.415   1_554  A
C1016      C1017   1.398       .  A
C1016      H1025   1.083       .  S
C1017      C1018   1.414       .  A
C1017      S1021   1.803       .  S
C1018      C1019   1.404   1_554  A
C1019      C1020   1.399       .  A
C1019      H1026   1.084       .  S
C1020      S1022   1.804       .  S
S1021      H1024   1.407       .  S
S1022      H1023   1.407       .  S
C1027      C1028   1.405       .  A
C1027      C1032   1.410   1_554  A
C1028      C1029   1.403       .  A
C1028      H1037   1.084       .  S
C1029      C1030   1.415       .  A
C1029      S1033   1.802       .  S
C1030      C1031   1.406   1_554  A
C1031      C1032   1.396       .  A
C1031      H1038   1.084       .  S
C1032      S1034   1.803       .  S
S1033      H1036   1.407       .  S
S1034      H1035   1.407       .  S
C1039      C1040   1.402   1_556  A
C1039      C1044   1.415       .  A
C1040      C1041   1.398       .  A
C1040      H1049   1.084       .  S
C1041      C1042   1.415       .  A
C1041      S1045   1.801       .  S
C1042      C1043   1.404   1_554  A
C1043      C1044   1.402       .  A
C1043      H1050   1.083       .  S
C1044      S1046   1.803       .  S
S1045      H1048   1.407       .  S
S1046      H1047   1.407       .  S
C1051      C1052   1.404   1_554  A
C1051      C1056   1.412       .  A
C1052      C1053   1.399       .  A
C1052      H1061   1.084       .  S
C1053      C1054   1.415   1_556  A
C1053      S1057   1.803       .  S
C1054      C1055   1.405       .  A
C1055      C1056   1.399       .  A
C1055      H1062   1.083       .  S
C1056      S1058   1.803       .  S
S1057      H1060   1.407       .  S
S1058      H1059   1.407       .  S
O1063      C1079   1.274       .  A
O1063     Zn1069   2.009       .  S
C1064      O1080   1.272       .  A
C1064      O1077   1.274       .  A
C1064      C1357   1.475       .  S
O1065      C1078   1.277   1_556  A
O1065     Cd1072   2.086       .  S
O1066      C1084   1.273       .  A
O1066     Cd1075   2.055       .  S
O1067      C1081   1.273   1_556  A
O1067     Cd1071   2.064       .  S
O1068      C1079   1.274   1_556  A
O1068     Cd1071   2.071       .  S
Zn1069     O1080   2.015       .  S
Zn1069     O1082   2.004       .  S
Zn1069     O1074   1.939       .  S
O1070      C1081   1.275       .  A
O1070     Cd1075   2.064       .  S
Cd1071     O1073   2.061       .  S
Cd1071     O1074   2.004   1_556  S
Cd1072     O1076   2.088       .  S
Cd1072     O1085   2.092       .  S
Cd1072     O1074   2.015   1_556  S
O1073      C1083   1.273       .  A
O1074     Cd1075   1.991       .  S
Cd1075     O1077   2.070       .  S
O1076      C1083   1.277       .  A
C1078      O1082   1.273       .  A
C1078      C1381   1.474       .  S
C1079      C1408   1.478       .  S
C1081      C1369   1.476       .  S
C1083      C1345   1.477       .  S
C1084      O1085   1.278   1_554  A
C1084      C1396   1.481       .  S
O1086      C1102   1.272       .  A
O1086     Zn1092   1.986       .  S
C1087      O1103   1.273       .  A
C1087      O1100   1.275       .  A
C1087      C1348   1.482       .  S
O1088      C1101   1.274       .  A
O1088     Cd1095   2.077       .  S
O1089      C1107   1.274       .  A
O1089     Cd1098   2.055       .  S
O1090      C1104   1.278       .  A
O1090     Cd1094   2.093       .  S
O1091      C1102   1.276       .  A
O1091     Cd1094   2.087       .  S
Zn1092     O1103   2.006       .  S
Zn1092     O1105   2.006       .  S
Zn1092     O1097   1.925       .  S
O1093      C1104   1.275       .  A
O1093     Cd1098   2.065       .  S
Cd1094     O1096   2.073       .  S
Cd1094     O1097   2.016       .  S
Cd1095     O1099   2.064       .  S
Cd1095     O1108   2.077       .  S
Cd1095     O1097   2.012       .  S
O1096      C1106   1.275       .  A
O1097     Cd1098   1.991       .  S
Cd1098     O1100   2.080       .  S
O1099      C1106   1.275       .  A
C1101      O1105   1.272       .  A
C1101      C1312   1.477       .  S
C1102      C1336   1.477       .  S
C1104      C1300   1.483       .  S
C1106      C1360   1.479       .  S
C1107      O1108   1.275       .  A
C1107      C1321   1.470       .  S
O1109      C1125   1.273       .  A
O1109     Zn1115   2.013       .  S
C1110      O1126   1.274       .  A
C1110      C1249   1.479       .  S
O1111      C1124   1.275   1_554  A
O1111     Cd1118   2.080       .  S
O1112      C1130   1.272   1_556  A
O1112     Cd1121   2.052       .  S
O1113      C1127   1.276   1_554  A
O1114      C1125   1.275   1_554  A
O1114     Cd1117   2.078       .  S
Zn1115     O1126   2.019       .  S
Zn1115     O1128   2.000       .  S
Zn1115     O1120   1.933       .  S
O1116      C1127   1.272       .  A
O1116     Cd1121   2.048       .  S
Cd1117     O1120   2.006   1_554  S
Cd1118     O1120   2.011   1_554  S
O1119      C1129   1.276   1_655  A
Cd1121     O1123   2.053       .  S
O1122      C1129   1.275       .  A
C1124      O1128   1.274       .  A
C1124      C1273   1.484       .  S
C1125      C1393   1.478       .  S
C1127      C1288   1.480       .  S
C1129      C1261   1.477       .  S
C1130      O1131   1.276       .  A
C1130      C1405   1.474       .  S
O1132      C1148   1.272   1_655  A
O1132     Zn1138   2.010       .  S
C1133      O1149   1.271       .  A
C1133      O1146   1.276       .  A
C1133      C1333   1.478       .  S
O1134      C1147   1.276       .  A
O1134     Cd1141   2.091       .  S
O1135      C1153   1.276       .  A
O1136      C1150   1.273       .  A
O1136     Cd1140   2.049       .  S
O1137     Cd1140   2.063       .  S
Zn1138     O1149   1.980       .  S
Zn1138     O1151   1.975       .  S
Zn1138     O1143   1.918       .  S
O1139      C1150   1.277       .  A
Cd1140     O1142   2.030       .  S
Cd1141     O1143   2.019       .  S
O1142      C1152   1.270       .  A
O1143     Cd1144   2.015       .  S
Cd1144     O1146   2.091       .  S
O1145      C1152   1.277       .  A
C1147      O1151   1.270       .  A
C1147      C1240   1.480       .  S
C1148      C1252   1.480       .  S
C1150      C1225   1.480       .  S
C1152      C1324   1.469       .  S
C1153      O1154   1.277       .  A
C1153      C1264   1.479       .  S
O1155      C1171   1.272   1_556  A
O1155     Zn1161   1.993       .  S
C1156      O1172   1.272       .  A
C1156      C1201   1.476       .  S
O1157      C1170   1.275       .  A
O1157     Cd1164   2.088       .  S
O1158      C1176   1.273       .  A
O1158     Cd1167   2.054       .  S
O1159      C1173   1.275       .  A
O1160      C1171   1.275       .  A
O1160     Cd1163   2.081       .  S
Zn1161     O1172   2.002       .  S
Zn1161     O1174   1.993       .  S
Zn1161     O1166   1.924   1_556  S
O1162      C1173   1.274   1_556  A
O1162     Cd1167   2.059       .  S
Cd1163     O1165   2.065       .  S
Cd1163     O1166   2.007       .  S
Cd1164     O1168   2.075       .  S
Cd1164     O1166   2.013       .  S
Cd1167     O1169   2.069       .  S
C1170      O1174   1.272   1_554  A
C1170      C1384   1.482       .  S
C1171      C1285   1.480       .  S
C1173      C1372   1.476       .  S
C1176      O1177   1.277   1_556  A
C1176      C1276   1.486       .  S
O1178      C1194   1.272       .  A
O1178     Zn1184   2.004       .  S
C1179      O1195   1.272   1_545  A
O1180      C1193   1.276       .  A
O1180     Cd1187   2.087   1_565  S
O1181      C1199   1.274       .  A
O1181     Cd1190   2.060       .  S
O1182      C1196   1.275       .  A
O1183      C1194   1.275       .  A
O1183     Cd1186   2.083   1_565  S
Zn1184     O1195   2.005       .  S
Zn1184     O1197   2.001       .  S
Zn1184     O1189   1.930   1_565  S
O1185      C1196   1.275       .  A
O1185     Cd1190   2.063       .  S
Cd1186     O1189   2.010       .  S
Cd1187     O1189   2.008       .  S
O1188      C1198   1.276       .  A
Cd1190     O1192   2.070       .  S
O1191      C1198   1.274       .  A
C1193      O1197   1.273       .  A
C1193      C1228   1.480       .  S
C1194      C1297   1.479       .  S
C1196      C1237   1.480       .  S
C1198      C1216   1.489       .  S
C1199      O1200   1.277       .  A
C1199      C1309   1.478       .  S
C1201      C1202   1.405       .  A
C1202      C1203   1.398       .  A
C1202      H1211   1.084       .  S
C1203      C1204   1.413       .  A
C1203      S1207   1.803       .  S
C1205      C1206   1.398       .  A
C1205      H1212   1.084       .  S
C1206      S1208   1.803       .  S
S1207      H1210   1.407       .  S
S1208      H1209   1.407       .  S
C1213      C1214   1.406       .  A
C1214      C1215   1.398       .  A
C1214      H1223   1.084       .  S
C1215      C1216   1.417       .  A
C1215      S1219   1.800       .  S
C1217      C1218   1.399       .  A
C1217      H1224   1.084       .  S
C1218      S1220   1.801       .  S
S1219      H1222   1.408       .  S
S1220      H1221   1.408   1_545  S
C1225      C1226   1.405       .  A
C1225      C1230   1.414       .  A
C1226      C1227   1.403       .  A
C1226      H1235   1.084       .  S
C1227      C1228   1.415       .  A
C1227      S1231   1.802       .  S
C1228      C1229   1.403       .  A
C1229      C1230   1.396       .  A
C1229      H1236   1.085       .  S
C1230      S1232   1.805       .  S
S1231      H1234   1.407       .  S
S1232      H1233   1.407       .  S
C1237      C1238   1.407       .  A
C1237      C1242   1.413       .  A
C1238      C1239   1.401       .  A
C1238      H1247   1.084       .  S
C1239      C1240   1.414       .  A
C1239      S1243   1.800       .  S
C1240      C1241   1.405       .  A
C1241      C1242   1.394       .  A
C1241      H1248   1.085       .  S
C1242      S1244   1.804       .  S
S1243      H1246   1.407       .  S
S1244      H1245   1.407       .  S
C1249      C1250   1.404       .  A
C1250      C1251   1.399       .  A
C1250      H1259   1.084       .  S
C1251      S1255   1.803       .  S
C1252      C1253   1.404   1_455  A
C1253      C1254   1.397       .  A
C1253      H1260   1.084       .  S
C1254      S1256   1.804       .  S
S1255      H1258   1.407       .  S
S1256      H1257   1.407       .  S
C1261      C1262   1.403   1_455  A
C1262      C1263   1.399       .  A
C1262      H1271   1.083       .  S
C1263      S1267   1.801       .  S
C1264      C1265   1.404       .  A
C1265      C1266   1.400       .  A
C1265      H1272   1.083       .  S
C1266      S1268   1.802       .  S
S1267      H1270   1.407       .  S
S1268      H1269   1.407       .  S
C1273      C1274   1.404       .  A
C1273      C1278   1.417   1_556  A
C1274      C1275   1.394       .  A
C1274      H1283   1.085       .  S
C1275      C1276   1.416       .  A
C1275      S1279   1.805       .  S
C1276      C1277   1.406   1_556  A
C1277      C1278   1.403       .  A
C1277      H1284   1.084       .  S
C1278      S1280   1.800       .  S
S1279      H1282   1.407       .  S
S1280      H1281   1.406       .  S
C1285      C1286   1.404   1_554  A
C1285      C1290   1.415       .  A
C1286      C1287   1.395       .  A
C1286      H1295   1.085       .  S
C1287      C1288   1.414       .  A
C1287      S1291   1.805       .  S
C1288      C1289   1.405   1_556  A
C1289      C1290   1.401       .  A
C1289      H1296   1.084       .  S
C1290      S1292   1.802       .  S
S1291      H1294   1.407       .  S
S1292      H1293   1.407       .  S
C1297      C1298   1.403       .  A
C1297      C1302   1.413       .  A
C1298      C1299   1.403       .  A
C1298      H1307   1.083       .  S
C1299      C1300   1.417       .  A
C1299      S1303   1.802       .  S
C1300      C1301   1.405       .  A
C1301      C1302   1.399       .  A
C1301      H1308   1.083       .  S
C1302      S1304   1.805       .  S
S1303      H1306   1.407       .  S
S1304      H1305   1.407       .  S
C1309      C1310   1.404       .  A
C1309      C1314   1.413       .  A
C1310      C1311   1.402       .  A
C1310      H1319   1.085       .  S
C1311      C1312   1.415       .  A
C1311      S1315   1.804       .  S
C1312      C1313   1.403       .  A
C1313      C1314   1.398       .  A
C1313      H1320   1.085       .  S
C1314      S1316   1.803       .  S
S1315      H1318   1.407       .  S
S1316      H1317   1.407       .  S
C1321      C1322   1.400       .  A
C1321      C1326   1.414       .  A
C1322      C1323   1.390       .  A
C1322      H1331   1.085       .  S
C1323      C1324   1.412       .  A
C1323      S1327   1.808       .  S
C1324      C1325   1.404       .  A
C1325      C1326   1.406       .  A
C1325      H1332   1.084       .  S
C1326      S1328   1.803       .  S
S1327      H1330   1.407       .  S
S1328      H1329   1.406       .  S
C1333      C1334   1.402       .  A
C1333      C1338   1.414       .  A
C1334      C1335   1.389       .  A
C1334      H1343   1.085       .  S
C1335      C1336   1.415       .  A
C1335      S1339   1.808       .  S
C1336      C1337   1.406       .  A
C1337      C1338   1.407       .  A
C1337      H1344   1.084       .  S
C1338      S1340   1.801       .  S
S1339      H1342   1.408       .  S
S1340      H1341   1.407       .  S
C1345      C1346   1.404       .  A
C1345      C1350   1.411       .  A
C1346      C1347   1.400       .  A
C1346      H1355   1.085       .  S
C1347      C1348   1.414       .  A
C1347      S1351   1.803       .  S
C1348      C1349   1.407       .  A
C1349      C1350   1.399       .  A
C1349      H1356   1.085       .  S
C1350      S1352   1.802       .  S
S1351      H1354   1.407       .  S
S1352      H1353   1.406       .  S
C1357      C1358   1.403       .  A
C1357      C1362   1.412       .  A
C1358      C1359   1.401       .  A
C1358      H1367   1.084       .  S
C1359      C1360   1.415       .  A
C1359      S1363   1.803       .  S
C1360      C1361   1.403       .  A
C1361      C1362   1.397       .  A
C1361      H1368   1.084       .  S
C1362      S1364   1.801       .  S
S1363      H1366   1.407       .  S
S1364      H1365   1.407       .  S
C1369      C1370   1.403       .  A
C1369      C1374   1.415   1_554  A
C1370      C1371   1.398       .  A
C1370      H1379   1.083       .  S
C1371      C1372   1.414       .  A
C1371      S1375   1.803       .  S
C1372      C1373   1.404   1_554  A
C1373      C1374   1.399       .  A
C1373      H1380   1.084       .  S
C1374      S1376   1.804       .  S
S1375      H1378   1.407       .  S
S1376      H1377   1.407       .  S
C1381      C1382   1.405       .  A
C1381      C1386   1.410   1_554  A
C1382      C1383   1.403       .  A
C1382      H1391   1.084       .  S
C1383      C1384   1.415       .  A
C1383      S1387   1.802       .  S
C1384      C1385   1.406   1_554  A
C1385      C1386   1.396       .  A
C1385      H1392   1.084       .  S
C1386      S1388   1.803       .  S
S1387      H1390   1.407       .  S
S1388      H1389   1.407       .  S
C1393      C1394   1.402   1_556  A
C1393      C1398   1.415       .  A
C1394      C1395   1.398       .  A
C1394      H1403   1.084       .  S
C1395      C1396   1.415       .  A
C1395      S1399   1.801       .  S
C1396      C1397   1.404   1_554  A
C1397      C1398   1.402       .  A
C1397      H1404   1.083       .  S
C1398      S1400   1.803       .  S
S1399      H1402   1.407       .  S
S1400      H1401   1.407       .  S
C1405      C1406   1.404   1_554  A
C1405      C1410   1.412       .  A
C1406      C1407   1.399       .  A
C1406      H1415   1.084       .  S
C1407      C1408   1.415   1_556  A
C1407      S1411   1.803       .  S
C1408      C1409   1.405       .  A
C1409      C1410   1.399       .  A
C1409      H1416   1.083       .  S
C1410      S1412   1.803       .  S
S1411      H1414   1.407       .  S
S1412      H1413   1.407       .  S
