geometry optimzed in LAMMPS
_audit_creation_date              2020-11-30 
_audit_creation_method            'lammps2cif' 
_symmetry_space_group_name_H-M    'P1' 
_symmetry_Int_Tables_number       1 
_symmetry_cell_setting            triclinic 
loop_ 
_symmetry_equiv_pos_as_xyz 
  x,y,z 
_cell_length_a                    42.62389208 
_cell_length_b                    42.66874966343155 
_cell_length_c                    29.942387629776565 
_cell_angle_alpha                 95.77634820142181 
_cell_angle_beta                  83.86206517960817 
_cell_angle_gamma                 129.29627579682185 
loop_ 
_atom_site_label 
_atom_site_type_symbol 
_atom_site_fract_x 
_atom_site_fract_y 
_atom_site_fract_z 
_atom_site_charge 
C1          C  0.33890594  0.16151056  0.03802659     0.32000
C2          C  0.33963841  0.15571923  0.43949507     0.32100
C3          C  0.35898939  0.14496333  0.00997966    -0.04100
C4          C  0.29797612  0.13497513  0.01497173    -0.04900
C5          C  0.36131061  0.20281036  0.01335622    -0.04800
C6          C  0.36207012  0.14297588  0.45955628    -0.04200
C7          C  0.29882172  0.12872577  0.46624038    -0.04900
C8          C  0.35881421  0.19623111  0.46697164    -0.04800
C9          C  0.38660556  0.13397454  0.44169998    -0.30200
N10         N  0.40119141  0.12834167  0.47559889     0.16300
C11         C  0.37136608  0.12347624  0.01971400    -0.30200
H12         H  0.37304428  0.11687846  0.05291965     0.18200
C13         C  0.26103305  0.11155464  0.45429198    -0.29200
N14         N  0.23525076  0.09073494  0.99277408     0.15000
C15         C  0.25780329  0.10758609  0.02945750    -0.29200
C16         C  0.37747000  0.23505611  0.45595169    -0.29500
N17         N  0.39913541  0.26573595  0.98555865     0.15500
H18         H  0.38214434  0.24523700  0.42241806     0.18200
C19         C  0.38563866  0.24448558  0.02411909    -0.29500
H20         H  0.39353113  0.25834849  0.05764463     0.18200
H21         H  0.24572480  0.10144801  0.06397761     0.18200
H22         H  0.39377713  0.13203417  0.40623928     0.18200
H23         H  0.25259293  0.10912991  0.42050657     0.18200
C24         C  0.32773916  0.15082144  0.28817405     0.32000
C25         C  0.32703963  0.15075113  0.19072424     0.32100
C26         C  0.34196541  0.12961708  0.25765110    -0.04100
C27         C  0.28547299  0.12989255  0.26705125    -0.04900
C28         C  0.35415756  0.19224194  0.26501659    -0.04800
C29         C  0.34148568  0.12962906  0.20991253    -0.04200
C30         C  0.28549937  0.13008191  0.21900365    -0.04900
C31         C  0.35355767  0.19146256  0.21740982    -0.04800
C32         C  0.36062032  0.11466224  0.19110229    -0.30200
N33         N  0.37262454  0.10551137  0.22433672     0.16300
C34         C  0.36158399  0.11454079  0.26490182    -0.30200
H35         H  0.36899681  0.11238004  0.29729683     0.18200
C36         C  0.24595509  0.11195441  0.20916751    -0.29200
N37         N  0.22141642  0.09996170  0.24767420     0.15000
C38         C  0.24536364  0.11153449  0.28291608    -0.29200
C39         C  0.37905073  0.23044320  0.20462836    -0.29500
N40         N  0.39425886  0.25560367  0.24174899     0.15500
H41         H  0.38551113  0.23972606  0.17032907     0.18200
C42         C  0.37999198  0.23288264  0.27869598    -0.29500
H43         H  0.38667486  0.24498838  0.31299273     0.18200
H44         H  0.23484822  0.10850303  0.31795034     0.18200
H45         H  0.36709754  0.11233080  0.15550545     0.18200
H46         H  0.23610604  0.10920576  0.17613064     0.18200
O47         O  0.03466488  0.42787911  0.35838076    -0.73200
O48         O  0.07432285  0.46011300  0.41688637    -0.52200
C49         C  0.05959625  0.43348630  0.38495087     0.80500
O50         O  0.06234185  0.12675347  0.38957629    -0.57800
O51         O  0.00271340  0.09333950  0.35656534    -0.50900
C52         C  0.03598237  0.12630014  0.37142431     0.72500
O53         O  0.13624897  0.09548589  0.42726884    -0.72400
O54         O  0.11596716  0.03991775  0.46257480    -0.53000
C55         C  0.14284257  0.07641521  0.45001546     0.78500
O56         O  0.94375375  0.42745428  0.34876471    -0.57600
O57         O  0.44051939  0.99319353  0.34825227    -0.50700
C58         C  0.42754672  0.95732481  0.34966467     0.75100
Zr59       Zr  0.01692452  0.47110521  0.34647683     2.54700
O60         O  0.08797875  0.01031655  0.33325737    -0.78100
O61         O  0.52004738  0.43809980  0.29339888    -0.91500
Zr62       Zr  0.07878156  0.08167700  0.39394883     2.64700
O63         O  0.12542579  0.10312051  0.32816382    -0.96500
O64         O  0.13232598  0.15389618  0.40920540    -0.78500
O65         O  0.06985102  0.01985754  0.38770704    -0.81900
O66         O  0.02608852  0.03474000  0.34431584    -2.16600
O67         O  0.37291216  0.43733245  0.42272901    -0.65300
O68         O  0.40397509  0.50043369  0.39830363    -0.49900
C69         C  0.37188685  0.46428871  0.40845053     0.73500
O70         O  0.42575678  0.93611274  0.99612442    -0.58200
O71         O  0.03401921  0.46834476  0.04736866    -0.50200
C72         C  0.42910131  0.40704906  0.00554240     0.75300
O73         O  0.46073818  0.06956466  0.51539034    -0.69600
O74         O  0.46338535  0.08251939  0.44345774    -0.48300
C75         C  0.45548815  0.08507720  0.48525790     0.76700
O76         O  0.42187375  0.37232428  0.45500221    -0.64900
O77         O  0.48485335  0.39584035  0.47116164    -0.52100
C78         C  0.44719838  0.36705108  0.46397788     0.75000
Zr79       Zr  0.42319151  0.42894772  0.43858683     2.77500
O80         O  0.37135147  0.40557214  0.49972860    -0.95700
O81         O  0.39292552  0.37127281  0.38507693    -0.76500
Zr82       Zr  0.48589819  0.03104961  0.51870262     2.70900
O83         O  0.38371565  0.47154613  0.03945295    -0.77700
O84         O  0.05138428  0.11193865  0.02046753    -0.96800
Zr85       Zr  0.04474195  0.48627970  0.45830777     2.21500
Zr86       Zr  0.47985356  0.04286577  0.40500198     2.11100
O87         O  0.43749268  0.49254516  0.46396868    -2.45500
O88         O  0.48857313  0.48865253  0.45489127    -0.77500
O89         O  0.48796874  0.49032156  0.41810670    -0.69700
O90         O  0.06044705  0.05638374  0.46573249    -2.30700
O91         O  0.48209043  0.43402762  0.40960957    -2.26900
O92         O  0.02099106  0.07337782  0.42758663    -0.71500
H93         H  0.03494796  0.04719180  0.31592313     0.80500
H94         H  0.07730340  0.06772122  0.00345532     0.81600
H95         H  0.41494476  0.49141768  0.47642979     0.83800
H96         H  0.47670486  0.40947805  0.39673724     0.81400
H97         H  0.12530601  0.15943148  0.43997736     0.44500
H98         H  0.06546450  0.12350631  0.99115661     0.43400
H99         H  0.36618339  0.44776156  0.01886835     0.43100
H100        H  0.36892522  0.42710377  0.50718831     0.41000
H101        H  0.36643891  0.34947266  0.39988035     0.44200
H102        H  0.50378356  0.41074694  0.30562912     0.39000
H103        H  0.09244209  0.99125269  0.31938213     0.45100
H104        H  0.14651913  0.13283546  0.33218970     0.41500
H105        H  0.34557053  0.38300014  0.48597667     0.46400
H106        H  0.04074963  0.43773897  0.27634718     0.45100
H107        H  0.13972126  0.09235775  0.33226356     0.45300
H108        H  0.47509965  0.06567922  0.08296485     0.45600
O109        O  0.07201384  0.47908750  0.11562460    -0.73200
O110        O  0.04782428  0.44492672  0.17963398    -0.52200
C111        C  0.06897026  0.45514329  0.14251794     0.80500
O112        O  0.04859648  0.12708079  0.22875276    -0.57800
O113        O  0.00585042  0.11453333  0.17731665    -0.50900
C114        C  0.03552815  0.13840924  0.20261239     0.72500
O115        O  0.09942767  0.06421402  0.25240858    -0.72400
O116        O  0.07231925  0.99872877  0.23841643    -0.53000
C117        C  0.10310552  0.03636499  0.24810198     0.78500
O118        O  0.05285103  0.57333547  0.08397784    -0.57600
O119        O  0.43715397  0.98904219  0.09283901    -0.50700
C120        C  0.42843466  0.95463360  0.08767560     0.75100
Zr121      Zr  0.05012977  0.52236880  0.12028433     2.54700
O122        O  0.10848441  0.06742757  0.15695946    -0.78100
O123        O  0.52847630  0.45132143  0.04817531    -0.91500
Zr124      Zr  0.04569354  0.06849447  0.24077166     2.64700
O125        O  0.11353571  0.12705111  0.21207788    -0.96500
O126        O  0.07579177  0.11437025  0.30568574    -0.78500
O127        O  0.05462414  0.02526861  0.19567978    -0.81900
O128        O  0.03448053  0.06613378  0.16572492    -2.16600
O129        O  0.36514198  0.42981677  0.15191707    -0.65300
O130        O  0.39575453  0.49507382  0.13540518    -0.49900
C131        C  0.36400955  0.45745913  0.14018845     0.73500
O132        O  0.41579692  0.93227219  0.26187774    -0.58200
O133        O  0.94724364  0.40687863  0.25826424    -0.50200
C134        C  0.41954556  0.40334578  0.26974462     0.75300
O135        O  0.42787337  0.04299703  0.26401392    -0.69600
O136        O  0.44249353  0.06663256  0.19445876    -0.48300
C137        C  0.42714894  0.06241439  0.23458684     0.76700
O138        O  0.40938885  0.36400852  0.19146515    -0.64900
O139        O  0.46791821  0.38534802  0.21994983    -0.52100
C140        C  0.43189407  0.35741458  0.20623432     0.75000
Zr141      Zr  0.41441256  0.42063688  0.16934520     2.77500
O142        O  0.35217099  0.37451513  0.21549038    -0.95700
O143        O  0.40790782  0.37599665  0.10650926    -0.76500
Zr144      Zr  0.45362286  0.00546726  0.26714133     2.70100
O145        O  0.38445144  0.47342224  0.30101569    -0.77700
O146        O  0.93158483  0.02574155  0.32232048    -0.96800
Zr147      Zr  0.00544458  0.46008657  0.21283431     2.21500
Zr148      Zr  0.46931008  0.03601221  0.15484077     2.11100
O149        O  0.41867002  0.47798823  0.20131907    -2.45500
O150        O  0.47252970  0.47835332  0.20333155    -0.77500
O151        O  0.47841814  0.48681891  0.16762516    -0.69700
O152        O  0.99036645  0.99831715  0.26686278    -2.30700
O153        O  0.47813951  0.43225874  0.15515771    -2.26900
O154        O  0.97932056  0.05073362  0.24199345    -0.71500
H155        H  0.05505908  0.09409410  0.15799229     0.80500
H156        H  0.98800684  0.98715755  0.29420929     0.81600
H157        H  0.39440091  0.47433599  0.21154197     0.83800
H158        H  0.47629007  0.40954800  0.14202002     0.81400
H159        H  0.09318972  0.14214763  0.29453776     0.44500
H160        H  0.94510999  0.05264931  0.31048634     0.43400
H161        H  0.36443546  0.44943840  0.28199316     0.43100
H162        H  0.33953733  0.38768205  0.22144800     0.41000
H163        H  0.38351213  0.34835434  0.11461753     0.44200
H164        H  0.51095162  0.42312564  0.05821806     0.39000
H165        H  0.12329283  0.09320632  0.14161995     0.45100
H166        H  0.11558627  0.15156015  0.21438964     0.41500
H167        H  0.33395180  0.35100554  0.19490485     0.46400
H168        H  0.12070218  0.57763090  0.06402056     0.45100
H169        H  0.13329819  0.13342789  0.23336266     0.45300
H170        H  0.47528793  0.06765501  0.33208544     0.45600
C171        C  0.15423245  0.34416751  0.35167485     0.32000
C172        C  0.15279372  0.34407251  0.44966444     0.32100
C173        C  0.13754906  0.36294201  0.38102634    -0.04100
C174        C  0.12835809  0.30223261  0.37449033    -0.04900
C175        C  0.19548658  0.36657756  0.37456854    -0.04800
C176        C  0.13669286  0.36314674  0.42900010    -0.04200
C177        C  0.12825849  0.30282944  0.42255751    -0.04900
C178        C  0.19425591  0.36629860  0.42266380    -0.04800
C179        C  0.11793301  0.37913316  0.44541520    -0.30200
N180        N  0.10730227  0.38774980  0.41008461     0.16300
C181        C  0.11928823  0.37824142  0.37101413    -0.30200
H182        H  0.11516570  0.38213018  0.33756527     0.18200
C183        C  0.10450748  0.26344504  0.43458309    -0.29200
N184        N  0.08976547  0.23849165  0.39724213     0.15000
C185        C  0.10387902  0.26149258  0.36042439    -0.29200
C186        C  0.23312001  0.38596836  0.43453615    -0.29500
N187        N  0.25811314  0.39845854  0.39687768     0.15500
H188        H  0.24234967  0.38923059  0.46812509     0.18200
C189        C  0.23577464  0.38637745  0.36025288    -0.29500
H190        H  0.24764244  0.39004972  0.32569256     0.18200
H191        H  0.09850135  0.24969138  0.32595295     0.18200
H192        H  0.11181010  0.38361286  0.48049540     0.18200
H193        H  0.09942671  0.25353007  0.46837895     0.18200
C194        C  0.14808237  0.34341503  0.10233896     0.32000
C195        C  0.15045288  0.34906446  0.20021443     0.32100
C196        C  0.13418125  0.36629567  0.13000560    -0.04100
C197        C  0.12204275  0.30316076  0.12877362    -0.04900
C198        C  0.18929484  0.36533656  0.12332958    -0.04800
C199        C  0.13517759  0.36893409  0.17823953    -0.04200
C200        C  0.12374821  0.30701111  0.17662540    -0.04900
C201        C  0.19028064  0.36779387  0.17125185    -0.04800
C202        C  0.12146635  0.39014193  0.19373187    -0.30200
N203        N  0.11253155  0.40066132  0.15834356     0.16300
C204        C  0.12010123  0.38627933  0.11950570    -0.30200
H205        H  0.11494608  0.38925442  0.08613130     0.18200
C206        C  0.10068210  0.26930315  0.19289836    -0.29200
N207        N  0.08483351  0.24170635  0.15802210     0.15000
C208        C  0.09724728  0.26166663  0.11890437    -0.29200
C209        C  0.22898357  0.38498448  0.18062890    -0.29500
N210        N  0.25129528  0.39369053  0.14129055     0.15500
H211        H  0.23987869  0.38932295  0.21352887     0.18200
C212        C  0.22776687  0.38160989  0.10625346    -0.29500
H213        H  0.23747848  0.38260491  0.07114012     0.18200
H214        H  0.08953736  0.24709434  0.08566884     0.18200
H215        H  0.11786199  0.39719659  0.22871554     0.18200
H216        H  0.09604245  0.26281384  0.22804896     0.18200
C217        C  0.15233441  0.34874172  0.25464192    -0.11200
C218        C  0.15368076  0.34627645  0.29734792    -0.12800
C219        C  0.15230382  0.34359566  0.50453603    -0.11200
C220        C  0.14957971  0.34181594  0.04738972    -0.12800
C221        C  0.05781043  0.18216194  0.19992957    -0.14400
C222        C  0.05981059  0.19848151  0.16209312    -0.29600
H223        H  0.07626775  0.20135157  0.22781786     0.14600
H224        H  0.04375556  0.17881930  0.13305673     0.15200
C225        C  0.29093621  0.40563527  0.13804399    -0.14400
C226        C  0.32376360  0.44446386  0.13260165    -0.29600
H227        H  0.29377182  0.38332116  0.14624599     0.14600
H228        H  0.32041371  0.46674341  0.12594854     0.15200
C229        C  0.09455571  0.42061129  0.16431850    -0.14400
C230        C  0.09050159  0.43762879  0.13148964    -0.29600
H231        H  0.08382132  0.42217908  0.19841905     0.14600
H232        H  0.10270973  0.43868425  0.09745898     0.15200
C233        C  0.04670224  0.16671176  0.36787156    -0.14400
C234        C  0.07058893  0.19610490  0.39902380    -0.29600
H235        H  0.03699308  0.17269570  0.34010056     0.14600
H236        H  0.07656862  0.18752706  0.42806914     0.15200
C237        C  0.29874147  0.41205448  0.39654959    -0.14400
C238        C  0.33125574  0.45163264  0.40122619    -0.29600
H239        H  0.30222629  0.38903606  0.39748592     0.14600
H240        H  0.32776393  0.47461177  0.39990473     0.15200
C241        C  0.07254382  0.40863813  0.37953564    -0.14400
C242        C  0.08864115  0.40639127  0.41433340    -0.29600
H243        H  0.06938595  0.39292488  0.34742843     0.14600
H244        H  0.08869934  0.42007481  0.44703211     0.15200
C245        C  0.38296124  0.36384179  0.28290279    -0.16500
C246        C  0.35308371  0.35387535  0.30546808     0.07600
C247        C  0.35476400  0.88966795  0.33519530     0.09500
C248        C  0.38428546  0.92381490  0.34516553    -0.17300
C249        C  0.39210490  0.36630652  0.01351900    -0.16500
C250        C  0.36098520  0.35534964  0.03399586     0.07600
C251        C  0.36015400  0.88606561  0.06122562     0.09500
C252        C  0.38721998  0.91957506  0.07619626    -0.17300
C253        C  0.39569240  0.09126413  0.21524242    -0.14400
C254        C  0.40613903  0.07970239  0.24716365    -0.29600
H255        H  0.40386066  0.08863873  0.18019974     0.14600
H256        H  0.39710341  0.08049404  0.28225047     0.15200
C257        C  0.41772139  0.29889418  0.24140531    -0.14400
C258        C  0.41300064  0.31473240  0.20865185    -0.29600
H259        H  0.43685668  0.31814008  0.26898601     0.14600
H260        H  0.39023780  0.29464979  0.18436774     0.15200
C261        C  0.18052847  0.08800023  0.25065518    -0.14400
C262        C  0.14522250  0.04865572  0.25113376    -0.29600
H263        H  0.17844098  0.11190237  0.24880072     0.14600
H264        H  0.14744795  0.02465881  0.25078810     0.15200
C265        C  0.43698838  0.10490084  0.49879122    -0.14400
C266        C  0.42683889  0.11702341  0.46708252    -0.29600
H267        H  0.42829863  0.10587468  0.53398087     0.14600
H268        H  0.43563452  0.11521586  0.43206896     0.15200
C269        C  0.43226955  0.32541669  0.46469683    -0.14400
C270        C  0.40580526  0.30061484  0.49704306    -0.29600
H271        H  0.44288830  0.31475056  0.43759631     0.14600
H272        H  0.39780164  0.31212626  0.52600267     0.15200
C273        C  0.19515670  0.08535641  0.49145257    -0.14400
C274        C  0.18477442  0.09799403  0.46097940    -0.29600
H275        H  0.17209256  0.04327714  0.01551302     0.14600
H276        H  0.20832926  0.12417612  0.44150333     0.15200
C277        C  0.33653871  0.15448740  0.38510696    -0.11200
C278        C  0.33184897  0.15258156  0.34236563    -0.12800
C279        C  0.33059442  0.15435966  0.13607035    -0.11200
C280        C  0.33512730  0.15873886  0.09282512    -0.12800
C281        C  0.33901827  0.15600153  0.53739277     0.32000
C282        C  0.33991720  0.15869947  0.94008893     0.32100
C283        C  0.36198149  0.14312951  0.50761918    -0.04100
C284        C  0.29762001  0.12862366  0.51430233    -0.04900
C285        C  0.35844095  0.19653763  0.51501080    -0.04800
C286        C  0.35965996  0.14408325  0.96183540    -0.04200
C287        C  0.29886957  0.13380009  0.96702308    -0.04900
C288        C  0.36100925  0.20021645  0.96523889    -0.04800
C289        C  0.37230239  0.12257802  0.94535920    -0.30200
N290        N  0.37947721  0.11036968  0.98024797     0.16300
C291        C  0.38661230  0.13392345  0.51578448    -0.30200
H292        H  0.39383433  0.13219346  0.54853838     0.18200
C293        C  0.25996602  0.10577154  0.95493382    -0.29200
N294        N  0.23646158  0.10135456  0.49189993     0.15000
C295        C  0.25791936  0.11133900  0.52860513    -0.29200
C296        C  0.38410963  0.23856418  0.95005104    -0.29500
N297        N  0.38794313  0.25863974  0.49441034     0.15500
H298        H  0.39024773  0.24564382  0.91499440     0.18200
C299        C  0.37622763  0.23568472  0.53036455    -0.29500
H300        H  0.38034496  0.24676197  0.56511834     0.18200
H301        H  0.24634556  0.10924063  0.56308920     0.18200
H302        H  0.37476871  0.11499100  0.91023018     0.18200
H303        H  0.24999604  0.09761593  0.92091385     0.18200
C304        C  0.33800153  0.15549004  0.78783210     0.32000
C305        C  0.33810651  0.15603683  0.69068736     0.32100
C306        C  0.35712027  0.13853702  0.75765091    -0.04100
C307        C  0.29584460  0.13110197  0.76587677    -0.04900
C308        C  0.36136268  0.19731348  0.76597336    -0.04800
C309        C  0.35695550  0.13882972  0.70997783    -0.04200
C310        C  0.29619066  0.13158670  0.71813189    -0.04900
C311        C  0.36112733  0.19739971  0.71828696    -0.04800
C312        C  0.37677326  0.12424551  0.69135811    -0.30200
N313        N  0.38906429  0.11503840  0.72449907     0.16300
C314        C  0.37736144  0.12375084  0.76498290    -0.30200
H315        H  0.38322788  0.11994396  0.79746149     0.18200
C316        C  0.25662263  0.11273868  0.70800331    -0.29200
N317        N  0.23186104  0.09973669  0.74627374     0.15000
C318        C  0.25557657  0.11139666  0.78160592    -0.29200
C319        C  0.38042081  0.23696400  0.70829296    -0.29500
N320        N  0.39310296  0.26100077  0.74668145     0.15500
H321        H  0.38320111  0.24726226  0.67541820     0.18200
C322        C  0.38158782  0.23722397  0.78196265    -0.29500
H323        H  0.38504587  0.24759344  0.81694618     0.18200
H324        H  0.24496754  0.10847587  0.81659903     0.18200
H325        H  0.38222062  0.12087366  0.65570654     0.18200
H326        H  0.24702548  0.11098314  0.67516531     0.18200
O327        O  0.03936249  0.43163994  0.87015243    -0.73200
O328        O  0.07452167  0.45976138  0.93215299    -0.52200
C329        C  0.06396943  0.43696105  0.89679620     0.80500
O330        O  0.06660538  0.12240624  0.89796951    -0.57800
O331        O  0.00251038  0.08997109  0.87703238    -0.50900
C332        C  0.03921696  0.12261118  0.88409062     0.72500
O333        O  0.13022087  0.08000577  0.93985299    -0.72400
O334        O  0.10852806  0.02519873  0.97786793    -0.53000
C335        C  0.13627666  0.06030824  0.96193070     0.78500
O336        O  0.93994863  0.42334894  0.85210914    -0.57600
O337        O  0.49555255  0.09065336  0.84604660    -0.50700
C338        C  0.49707780  0.06204601  0.83926795     0.75100
Zr339      Zr  0.01176987  0.46622284  0.85963758     2.54700
O340        O  0.07185020  0.02492074  0.82732684    -0.78100
O341        O  0.60206243  0.55092977  0.80294986    -0.91500
Zr342      Zr  0.07503182  0.07356101  0.91334291     2.64700
O343        O  0.12212766  0.10303454  0.84742391    -0.96500
O344        O  0.12719393  0.13999211  0.94778636    -0.78500
O345        O  0.06560090  0.01106588  0.90592821    -0.81900
O346        O  0.02157387  0.02918001  0.86302737    -2.16600
O347        O  0.38175501  0.43788645  0.87972180    -0.65300
O348        O  0.40435857  0.50302044  0.88960270    -0.49900
C349        C  0.37605435  0.46437793  0.88122307     0.73500
O350        O  0.44017103  0.95820604  0.52925615    -0.58200
O351        O  0.07420391  0.49725345  0.52616604    -0.50200
C352        C  0.44592739  0.42549973  0.53186740     0.75300
O353        O  0.42425889  0.03737605  0.01938781    -0.69600
O354        O  0.44614959  0.07153517  0.95583937    -0.48300
C355        C  0.42569121  0.06035381  0.99332160     0.76700
O356        O  0.43299306  0.37904860  0.92029480    -0.64900
O357        O  0.48491871  0.39880694  0.96185300    -0.52100
C358        C  0.45258095  0.37140558  0.94064181     0.75000
Zr359      Zr  0.43325150  0.43548463  0.90538437     2.77500
O360        O  0.36780322  0.38537654  0.94518949    -0.95700
O361        O  0.41067283  0.38790821  0.84101095    -0.76500
Zr362      Zr  0.45714837  0.00631568  0.01553567     2.70900
O363        O  0.44631621  0.52930754  0.57897861    -0.77700
O364        O  0.04890401  0.11263902  0.53599583    -0.96800
Zr365      Zr  0.03940821  0.48159209  0.97087942     2.21500
Zr366      Zr  0.48162169  0.05302448  0.91072537     2.11100
O367        O  0.42938304  0.48491504  0.94577476    -2.45500
O368        O  0.48358309  0.48966556  0.95122578    -0.77500
O369        O  0.48348058  0.49806243  0.87286460    -0.69700
O370        O  0.05421349  0.04702505  0.98604906    -2.30700
O371        O  0.50213060  0.45884110  0.89678857    -2.26900
O372        O  0.01739073  0.06854725  0.94045733    -0.71500
H373        H  0.02901144  0.04404743  0.83658945     0.80500
H374        H  0.08426842  0.07995378  0.48043677     0.81600
H375        H  0.40234919  0.47579429  0.95356618     0.83800
H376        H  0.50229724  0.43823360  0.88054321     0.81400
H377        H  0.15112740  0.15321493  0.92621316     0.44500
H378        H  0.07185816  0.11393316  0.54311087     0.43400
H379        H  0.41837551  0.51339720  0.56875802     0.43100
H380        H  0.35388161  0.39725767  0.95033319     0.41000
H381        H  0.38282200  0.36383654  0.84999566     0.44200
H382        H  0.62136198  0.54664015  0.80939007     0.39000
H383        H  0.09338278  0.02327677  0.83235623     0.45100
H384        H  0.13397644  0.13190414  0.84913639     0.41500
H385        H  0.35160640  0.36251979  0.92312420     0.46400
H386        H  0.04665080  0.44023020  0.79248420     0.45100
H387        H  0.14486272  0.10361580  0.85356811     0.45300
H388        H  0.54126576  0.11259444  0.54573286     0.45600
O389        O  0.09798342  0.49726147  0.64218175    -0.73200
O390        O  0.05809219  0.44433820  0.68672664    -0.52200
C391        C  0.08985967  0.46678981  0.66097518     0.80500
O392        O  0.06641797  0.12635212  0.71222847    -0.57800
O393        O  0.01775595  0.10943360  0.66710629    -0.50900
C394        C  0.05045290  0.13560578  0.68765272     0.72500
O395        O  0.11212031  0.06563545  0.74910506    -0.72400
O396        O  0.08285483  0.99896478  0.74655104    -0.53000
C397        C  0.11469863  0.03723773  0.75008873     0.78500
O398        O  0.03858987  0.54761032  0.58769822    -0.57600
O399        O  0.41065865  0.96445998  0.60709234    -0.50700
C400        C  0.39816705  0.92917795  0.61304071     0.75100
Zr401      Zr  0.04758704  0.50403998  0.62253491     2.54700
O402        O  0.11311375  0.06243768  0.59305074    -0.78100
O403        O  0.45384519  0.37702086  0.58379734    -0.91500
Zr404      Zr  0.05670883  0.06678590  0.73715155     2.64700
O405        O  0.12869278  0.12275816  0.72208846    -0.96500
O406        O  0.07103479  0.10711046  0.80608458    -0.78500
O407        O  0.06343247  0.02025643  0.69630651    -0.81900
O408        O  0.04289556  0.05764558  0.66128308    -2.16600
O409        O  0.36780911  0.42560388  0.69965251    -0.65300
O410        O  0.38993403  0.48065549  0.66171518    -0.49900
C411        C  0.36197746  0.44752973  0.68164770     0.73500
O412        O  0.53218317  0.02209120  0.79678544    -0.58200
O413        O  0.95461766  0.40211717  0.76499222    -0.50200
C414        C  0.51267331  0.48138160  0.79810080     0.75300
O415        O  0.46086052  0.06499733  0.76135705    -0.69600
O416        O  0.44568517  0.06100224  0.69006911    -0.48300
C417        C  0.44500535  0.07078807  0.73179068     0.76700
O418        O  0.42839791  0.38011819  0.75339423    -0.64900
O419        O  0.49410984  0.40457774  0.74936632    -0.52100
C420        C  0.45559261  0.37624097  0.75750529     0.75000
Zr421      Zr  0.42257984  0.42563678  0.71745575     2.77500
O422        O  0.37175133  0.39563564  0.78169957    -0.95700
O423        O  0.37761877  0.36357716  0.67127951    -0.76500
Zr424      Zr  0.50830995  0.04758279  0.75370847     2.70100
O425        O  0.55359413  0.61456881  0.71969139    -0.77700
O426        O  0.94892523  0.03005552  0.82559794    -0.96800
Zr427      Zr  0.01285603  0.45584211  0.72034098     2.21500
Zr428      Zr  0.46244434  0.02004702  0.65256475     2.11100
O429        O  0.44432379  0.49499648  0.72403027    -2.45500
O430        O  0.49106974  0.48717696  0.71196651    -0.77500
O431        O  0.47884416  0.47790255  0.67382312    -0.69700
O432        O  0.00358539  0.00041102  0.77125291    -2.30700
O433        O  0.47368837  0.42117439  0.68205633    -2.26900
O434        O  0.99098488  0.05036216  0.73912715    -0.71500
H435        H  0.06408430  0.08435180  0.65016305     0.80500
H436        H  0.00402087  0.99180680  0.79898999     0.81600
H437        H  0.42287467  0.49567910  0.73628317     0.83800
H438        H  0.46588678  0.39441727  0.67768187     0.81400
H439        H  0.07949224  0.13323716  0.79688951     0.44500
H440        H  0.96076269  0.05580836  0.81173024     0.43400
H441        H  0.54118893  0.62755457  0.73003047     0.43100
H442        H  0.35580291  0.40509063  0.78066645     0.41000
H443        H  0.38529126  0.34661339  0.67588999     0.44200
H444        H  0.44682276  0.36049105  0.60963632     0.39000
H445        H  0.12976567  0.07656853  0.61961874     0.45100
H446        H  0.13192102  0.12605702  0.68923983     0.41500
H447        H  0.35260742  0.36631577  0.77340525     0.46400
H448        H  0.03820047  0.42496464  0.60240256     0.45100
H449        H  0.13365042  0.14754442  0.73578329     0.45300
H450        H  0.59086946  0.12403107  0.75220402     0.45600
C451        C  0.15484966  0.34153164  0.85144125     0.32000
C452        C  0.15447833  0.34192085  0.94883487     0.32100
C453        C  0.13759557  0.35988315  0.88097900    -0.04100
C454        C  0.13040692  0.29994147  0.87411557    -0.04900
C455        C  0.19652199  0.36497179  0.87327415    -0.04800
C456        C  0.13753433  0.36015090  0.92870972    -0.04200
C457        C  0.13050482  0.30048038  0.92202657    -0.04900
C458        C  0.19628777  0.36489759  0.92122308    -0.04800
C459        C  0.12225464  0.37914100  0.94649660    -0.30200
N460        N  0.11282279  0.38991698  0.91228252     0.16300
C461        C  0.12203845  0.37847248  0.87234518    -0.30200
H462        H  0.11882996  0.38420684  0.83942185     0.18200
C463        C  0.11148986  0.26146991  0.93310512    -0.29200
N464        N  0.09888087  0.23705794  0.89520218     0.15000
C465        C  0.11047465  0.26000428  0.85910459    -0.29200
C466        C  0.23586789  0.38415363  0.93103026    -0.29500
N467        N  0.26000120  0.39679698  0.89234288     0.15500
H468        H  0.24614544  0.38723639  0.96391594     0.18200
C469        C  0.23640961  0.38502979  0.85712548    -0.29500
H470        H  0.24702987  0.38853467  0.82209351     0.18200
H471        H  0.10756288  0.24908218  0.82435938     0.18200
H472        H  0.11863638  0.38518301  0.98187336     0.18200
H473        H  0.10923435  0.25186712  0.96623529     0.18200
C474        C  0.15222667  0.34269614  0.60280595     0.32000
C475        C  0.15243564  0.34323506  0.70026598     0.32100
C476        C  0.14229606  0.36803807  0.63268910    -0.04100
C477        C  0.12240812  0.30112260  0.62702840    -0.04900
C478        C  0.19265032  0.35988310  0.62421053    -0.04800
C479        C  0.14236577  0.36790792  0.68054151    -0.04200
C480        C  0.12294632  0.30231734  0.67494193    -0.04900
C481        C  0.19192903  0.35948220  0.67204113    -0.04800
C482        C  0.13221350  0.39118910  0.69911169    -0.30200
N483        N  0.12654336  0.40611145  0.66573225     0.16300
C484        C  0.13241444  0.39231877  0.62519681    -0.30200
H485        H  0.12763595  0.39765737  0.59293318     0.18200
C486        C  0.10020224  0.26345425  0.68821283    -0.29200
N487        N  0.08604019  0.23786231  0.65141042     0.15000
C488        C  0.09876808  0.26012905  0.61413408    -0.29200
C489        C  0.23079609  0.38074780  0.68381329    -0.29500
N490        N  0.25595745  0.39473289  0.64614320     0.15500
H491        H  0.23960530  0.38664896  0.71804085     0.18200
C492        C  0.23319581  0.38221632  0.60977722    -0.29500
H493        H  0.24544945  0.39025266  0.57552436     0.18200
H494        H  0.09371466  0.24769541  0.57990570     0.18200
H495        H  0.12766250  0.39577022  0.73469364     0.18200
H496        H  0.09614291  0.25469185  0.72234439     0.18200
C497        C  0.15330723  0.34292702  0.75441175    -0.11200
C498        C  0.15423609  0.34209348  0.79733662    -0.12800
C499        C  0.15227359  0.34181495  0.00370989    -0.11200
C500        C  0.15227161  0.34304800  0.54801458    -0.12800
C501        C  0.07159060  0.17938203  0.68369331    -0.14400
C502        C  0.06473494  0.19475801  0.65209366    -0.29600
H503        H  0.09490577  0.20003328  0.70728340     0.14600
H504        H  0.04390299  0.17479702  0.62602038     0.15200
C505        C  0.29960258  0.41919393  0.64470634    -0.14400
C506        C  0.31986790  0.43157231  0.68249456    -0.29600
H507        H  0.31612277  0.42560293  0.61219012     0.14600
H508        H  0.30417661  0.42427194  0.71532586     0.15200
C509        C  0.10723966  0.42415609  0.67464638    -0.14400
C510        C  0.11570473  0.45448830  0.65145749    -0.29600
H511        H  0.08491423  0.41258117  0.70291087     0.14600
H512        H  0.13946016  0.46815259  0.62473442     0.15200
C513        C  0.05143262  0.16339439  0.87802970    -0.14400
C514        C  0.08679069  0.19698636  0.89405996    -0.29600
H515        H  0.03091606  0.16592947  0.86343556     0.14600
H516        H  0.10566207  0.19376055  0.91144205     0.15200
C517        C  0.30125519  0.41108305  0.88912794    -0.14400
C518        C  0.33368778  0.44878596  0.87634823    -0.29600
H519        H  0.30642224  0.39190810  0.90209949     0.14600
H520        H  0.32890781  0.46946158  0.86739197     0.15200
C521        C  0.08005974  0.41493056  0.88701253    -0.14400
C522        C  0.09768922  0.41198121  0.91915053    -0.29600
H523        H  0.07569208  0.39962174  0.85428802     0.14600
H524        H  0.09951567  0.42553681  0.95252556     0.15200
C525        C  0.47078774  0.45560564  0.79531458    -0.16500
C526        C  0.44358367  0.45654649  0.79855363     0.07600
C527        C  0.44114718  0.98964221  0.81109339     0.09500
C528        C  0.46165195  0.02434565  0.82319988    -0.17300
C529        C  0.40865687  0.38411915  0.53853056    -0.16500
C530        C  0.37371328  0.35777101  0.55097962     0.07600
C531        C  0.34520450  0.86426669  0.57917894     0.09500
C532        C  0.35734114  0.89389330  0.60306954    -0.17300
C533        C  0.41024045  0.09825315  0.71483875    -0.14400
C534        C  0.42455548  0.08933505  0.74581310    -0.29600
H535        H  0.41472974  0.09228168  0.67957102     0.14600
H536        H  0.42123916  0.09544520  0.78131328     0.15200
C537        C  0.40587638  0.30166971  0.74897045    -0.14400
C538        C  0.44069957  0.33477525  0.76677821    -0.29600
H539        H  0.38895328  0.30638348  0.72993482     0.14600
H540        H  0.46052263  0.33141899  0.78164001     0.15200
C541        C  0.19129702  0.08803876  0.74909988    -0.14400
C542        C  0.15622210  0.04929978  0.75447940    -0.29600
H543        H  0.18913935  0.11108535  0.74211661     0.14600
H544        H  0.15819013  0.02565699  0.75888132     0.15200
C545        C  0.40282079  0.07547619  0.00592580    -0.14400
C546        C  0.39469321  0.08837015  0.97304573    -0.29600
H547        H  0.39425597  0.07730676  0.04094129     0.14600
H548        H  0.40184161  0.08379288  0.93822522     0.15200
C549        C  0.43327768  0.32785425  0.94335742    -0.14400
C550        C  0.42509587  0.30967387  0.98263592    -0.29600
H551        H  0.41992056  0.30953375  0.91291261     0.14600
H552        H  0.43624498  0.32840859  0.01345980     0.15200
C553        C  0.19240633  0.06825324  0.99327105    -0.14400
C554        C  0.17872998  0.08044998  0.96725809    -0.29600
H555        H  0.17230883  0.06125616  0.51369335     0.14600
H556        H  0.20056216  0.10763529  0.94834720     0.15200
C557        C  0.33934911  0.15690507  0.88551401    -0.11200
C558        C  0.33855831  0.15599267  0.84221129    -0.12800
C559        C  0.33842039  0.15636628  0.63587296    -0.11200
C560        C  0.33868154  0.15631402  0.59229184    -0.12800
C561        C  0.34429886  0.66537690  0.03656594     0.32000
C562        C  0.34481183  0.65907019  0.43898813     0.32100
C563        C  0.36310553  0.64736412  0.00949763    -0.04100
C564        C  0.30375570  0.64044521  0.01287524    -0.04900
C565        C  0.36855098  0.70695195  0.01158413    -0.04800
C566        C  0.36650119  0.64515853  0.45876563    -0.04200
C567        C  0.30408961  0.63266122  0.46633977    -0.04900
C568        C  0.36496190  0.69982955  0.46661221    -0.04800
C569        C  0.38800583  0.63252147  0.44078095    -0.30200
N570        N  0.40085032  0.62465684  0.47456598     0.16300
C571        C  0.37754633  0.62818113  0.02055081    -0.30200
H572        H  0.38065440  0.62341641  0.05409072     0.18200
C573        C  0.26518789  0.61041261  0.45460802    -0.29200
N574        N  0.24125039  0.59996280  0.98946577     0.15000
C575        C  0.26321707  0.61537900  0.02662293    -0.29200
C576        C  0.38729880  0.73937983  0.45526010    -0.29500
N577        N  0.40497488  0.76975408  0.98370129     0.15500
H578        H  0.39426163  0.74959214  0.42134642     0.18200
C579        C  0.39156287  0.74852211  0.02228292    -0.29500
H580        H  0.39791470  0.76230369  0.05591899     0.18200
H581        H  0.25058759  0.60942795  0.06094752     0.18200
H582        H  0.39384482  0.62909075  0.40526626     0.18200
H583        H  0.25561941  0.60597453  0.42089209     0.18200
C584        C  0.33352604  0.65438277  0.28678827     0.32000
C585        C  0.33229670  0.65335603  0.18902845     0.32100
C586        C  0.34922598  0.63456128  0.25649804    -0.04100
C587        C  0.29098662  0.63141096  0.26547194    -0.04900
C588        C  0.35844065  0.69551630  0.26307825    -0.04800
C589        C  0.34867525  0.63417383  0.20864528    -0.04200
C590        C  0.29067311  0.63100065  0.21734874    -0.04900
C591        C  0.35728662  0.69423499  0.21541204    -0.04800
C592        C  0.36615663  0.61740614  0.19038126    -0.30200
N593        N  0.37702397  0.60751346  0.22410746     0.16300
C594        C  0.36707802  0.61790379  0.26438761    -0.30200
H595        H  0.37336606  0.61477886  0.29699065     0.18200
C596        C  0.25067516  0.61071177  0.20754735    -0.29200
N597        N  0.22637420  0.59837754  0.24620807     0.15000
C598        C  0.25072501  0.61148387  0.28140118    -0.29200
C599        C  0.38193048  0.73306919  0.20205463    -0.29500
N600        N  0.39767827  0.75847640  0.23883634     0.15500
H601        H  0.38770360  0.74221756  0.16775410     0.18200
C602        C  0.38432851  0.73626426  0.27603698    -0.29500
H603        H  0.39190637  0.74883921  0.31006444     0.18200
H604        H  0.24032553  0.60869474  0.31645627     0.18200
H605        H  0.37132249  0.61327981  0.15484851     0.18200
H606        H  0.24034803  0.60712420  0.17452851     0.18200
O607        O  0.03315124  0.92847917  0.35829653    -0.73200
O608        O  0.07059642  0.95868154  0.41898456    -0.52200
C609        C  0.05630222  0.93252700  0.38646045     0.80500
O610        O  0.07308100  0.62961619  0.39182255    -0.57800
O611        O  0.01203940  0.59900874  0.36342748    -0.50900
C612        C  0.04710618  0.63108131  0.37614529     0.72500
O613        O  0.13910593  0.58986560  0.43026647    -0.72400
O614        O  0.11693684  0.53461213  0.46770040    -0.53000
C615        C  0.14469568  0.57057944  0.45418256     0.78500
O616        O  0.94172465  0.92504471  0.34842325    -0.57600
O617        O  0.43768260  0.48646178  0.34663670    -0.50700
C618        C  0.42474234  0.45061341  0.34835864     0.75100
Zr619      Zr  0.01490512  0.97128399  0.34550867     2.54700
O620        O  0.08996163  0.51356708  0.33214109    -0.78100
O621        O  0.51891640  0.94018158  0.29943074    -0.91500
Zr622      Zr  0.08417373  0.58066558  0.39602733     2.64700
O623        O  0.12909948  0.60096938  0.32874320    -0.96500
O624        O  0.14165280  0.65158599  0.41113990    -0.78500
O625        O  0.07234212  0.51753804  0.38901868    -0.81900
O626        O  0.03078364  0.53587026  0.34608992    -2.16600
O627        O  0.37459485  0.94566706  0.42265845    -0.65300
O628        O  0.40737150  0.00921383  0.39855307    -0.49900
C629        C  0.37461825  0.97339395  0.40854544     0.73500
O630        O  0.42392813  0.43187671  0.99608683    -0.58200
O631        O  0.02789154  0.96498341  0.05048765    -0.50200
C632        C  0.43071588  0.91097144  0.00476141     0.75300
O633        O  0.46003333  0.56432823  0.51434509    -0.69600
O634        O  0.45786101  0.57322552  0.44222792    -0.48300
C635        C  0.45215435  0.57765622  0.48419362     0.76700
O636        O  0.42184344  0.87808124  0.45330853    -0.64900
O637        O  0.48154890  0.89818940  0.47684387    -0.52100
C638        C  0.44457709  0.87053910  0.46535671     0.75000
Zr639      Zr  0.42367863  0.93530573  0.43880059     2.77500
O640        O  0.36916559  0.91018680  0.49743780    -0.95700
O641        O  0.39525959  0.87752347  0.38555116    -0.76500
Zr642      Zr  0.48590702  0.52604211  0.51700909     2.70900
O643        O  0.38691029  0.97637869  0.04171062    -0.77700
O644        O  0.05818628  0.61630796  0.01850412    -0.96800
Zr645      Zr  0.04340007  0.98855040  0.45741262     2.21500
Zr646      Zr  0.47705648  0.53597049  0.40371255     2.11100
O647        O  0.43861932  0.99914516  0.46459005    -2.45500
O648        O  0.48925915  0.99372291  0.45704875    -0.77500
O649        O  0.48938182  0.99634278  0.42019360    -0.69700
O650        O  0.06392576  0.55489464  0.46763124    -2.30700
O651        O  0.48243434  0.93918697  0.41220758    -2.26900
O652        O  0.02777825  0.57532821  0.42971462    -0.71500
H653        H  0.03983965  0.54862295  0.31819791     0.80500
H654        H  0.08336817  0.57073648  0.99892963     0.81600
H655        H  0.41626700  0.99835981  0.47681403     0.83800
H656        H  0.47730071  0.91475627  0.39931268     0.81400
H657        H  0.13799983  0.65660087  0.44356385     0.44500
H658        H  0.07407596  0.62638756  0.98957800     0.43400
H659        H  0.36897326  0.95385889  0.02002489     0.43100
H660        H  0.36807392  0.93245015  0.50650448     0.41000
H661        H  0.36838336  0.85552507  0.39952103     0.44200
H662        H  0.50182037  0.91351763  0.31348662     0.39000
H663        H  0.09594292  0.49496438  0.32158895     0.45100
H664        H  0.14591598  0.63079872  0.32833051     0.41500
H665        H  0.34378518  0.88950486  0.48191145     0.46400
H666        H  0.03562674  0.93623805  0.27443660     0.45100
H667        H  0.14834049  0.59664750  0.33540118     0.45300
H668        H  0.47226584  0.56147246  0.08296389     0.45600
O669        O  0.06798507  0.97996834  0.11907958    -0.73200
O670        O  0.04274694  0.94412864  0.18184844    -0.52200
C671        C  0.06486673  0.95555208  0.14542732     0.80500
O672        O  0.06342241  0.63183149  0.22199884    -0.57800
O673        O  0.01767814  0.62001385  0.17556876    -0.50900
C674        C  0.04935209  0.64369771  0.19825585     0.72500
O675        O  0.10633932  0.56436609  0.25057290    -0.72400
O676        O  0.07765401  0.49832449  0.23664745    -0.53000
C677        C  0.10894551  0.53576750  0.24612218     0.78500
O678        O  0.04316847  0.07044507  0.08644013    -0.57600
O679        O  0.43376158  0.48638428  0.09261592    -0.50700
C680        C  0.42702506  0.45299670  0.08635712     0.75100
Zr681      Zr  0.04367929  0.02143288  0.12219021     2.54700
O682        O  0.11538562  0.56547662  0.15460013    -0.78100
O683        O  0.53013385  0.95532031  0.04824752    -0.91500
Zr684      Zr  0.05406914  0.57039305  0.23917937     2.64700
O685        O  0.12521354  0.62502496  0.21654847    -0.96500
O686        O  0.08010066  0.61523796  0.30535277    -0.78500
O687        O  0.06093109  0.52585302  0.19387183    -0.81900
O688        O  0.04305278  0.56830784  0.16409383    -2.16600
O689        O  0.36703445  0.93505118  0.15173343    -0.65300
O690        O  0.39930894  0.00046595  0.13426106    -0.49900
C691        C  0.36701058  0.96323272  0.13931931     0.73500
O692        O  0.41449639  0.42826636  0.25976887    -0.58200
O693        O  0.94100230  0.90453024  0.25775777    -0.50200
C694        C  0.41945216  0.90637321  0.27218531     0.75300
O695        O  0.42465107  0.53757723  0.26446319    -0.69600
O696        O  0.43991251  0.56210765  0.19538486    -0.48300
C697        C  0.42429160  0.55745928  0.23535925     0.76700
O698        O  0.40818850  0.86630392  0.19372479    -0.64900
O699        O  0.46681782  0.88694345  0.22128309    -0.52100
C700        C  0.43075376  0.85934965  0.20758249     0.75000
Zr701      Zr  0.41373322  0.92367785  0.17254552     2.77500
O702        O  0.35177258  0.88264327  0.22109108    -0.95700
O703        O  0.40074032  0.87443044  0.11225372    -0.76500
Zr704      Zr  0.45185769  0.50121880  0.26584011     2.70100
O705        O  0.38784647  0.98166181  0.30390534    -0.77700
O706        O  0.94513016  0.53385016  0.32125270    -0.96800
Zr707      Zr  0.99983758  0.95898671  0.21394796     2.21500
Zr708      Zr  0.46690329  0.53253029  0.15425090     2.11100
O709        O  0.42003633  0.98242950  0.20273605    -2.45500
O710        O  0.47298940  0.98082674  0.20539893    -0.77500
O711        O  0.47870024  0.98904151  0.16928120    -0.69700
O712        O  0.99796121  0.50088037  0.26587178    -2.30700
O713        O  0.47680632  0.93379874  0.15811051    -2.26900
O714        O  0.98908813  0.55539515  0.24028966    -0.71500
H715        H  0.06428452  0.59584878  0.15570753     0.80500
H716        H  0.99541256  0.48954717  0.29342344     0.81600
H717        H  0.39592752  0.97936189  0.21224922     0.83800
H718        H  0.47409349  0.91071733  0.14456226     0.81400
H719        H  0.09140948  0.64233060  0.29596076     0.44500
H720        H  0.95893261  0.56064232  0.30889048     0.43400
H721        H  0.36676696  0.95862026  0.28478788     0.43100
H722        H  0.34335114  0.89953969  0.22904846     0.41000
H723        H  0.37375515  0.84885060  0.12079337     0.44200
H724        H  0.51207777  0.92649481  0.05618119     0.39000
H725        H  0.13057634  0.55609568  0.14120808     0.45100
H726        H  0.12547307  0.63386458  0.18712633     0.41500
H727        H  0.33104209  0.86069671  0.20077026     0.46400
H728        H  0.11330297  0.07578300  0.06396059     0.45100
H729        H  0.13479135  0.64860084  0.23745003     0.45300
H730        H  0.46788039  0.55911523  0.33497183     0.45600
C731        C  0.15615906  0.84962977  0.35452527     0.32000
C732        C  0.15391633  0.84766286  0.45234728     0.32100
C733        C  0.13228677  0.86051291  0.38421865    -0.04100
C734        C  0.13696383  0.80840138  0.37539607    -0.04900
C735        C  0.19737927  0.87787612  0.37859344    -0.04800
C736        C  0.13099568  0.85988958  0.43210647    -0.04200
C737        C  0.13650158  0.80777944  0.42337096    -0.04900
C738        C  0.19581513  0.87675029  0.42661430    -0.04800
C739        C  0.11014929  0.87373685  0.44875073    -0.30200
N740        N  0.09886262  0.88191259  0.41356294     0.16300
C741        C  0.11223221  0.87393871  0.37446561    -0.30200
H742        H  0.10981065  0.87970946  0.34116633     0.18200
C743        C  0.11892236  0.76871907  0.43284519    -0.29200
N744        N  0.10751936  0.74545321  0.39405705     0.15000
C745        C  0.11845801  0.76909711  0.35891973    -0.29200
C746        C  0.23499095  0.89803265  0.43872335    -0.29500
N747        N  0.26048703  0.91214632  0.40138605     0.15500
H748        H  0.24387314  0.89952918  0.47192526     0.18200
C749        C  0.23804227  0.89950853  0.36471624    -0.29500
H750        H  0.24987226  0.90239347  0.33022639     0.18200
H751        H  0.11473111  0.75882993  0.32389734     0.18200
H752        H  0.10494952  0.87904556  0.48387317     0.18200
H753        H  0.11519483  0.75795656  0.46575716     0.18200
C754        C  0.15099300  0.84934363  0.10506624     0.32000
C755        C  0.15185651  0.85394673  0.20307023     0.32100
C756        C  0.13368117  0.86924363  0.13277480    -0.04100
C757        C  0.12740765  0.80903063  0.13064177    -0.04900
C758        C  0.19231537  0.87397274  0.12696051    -0.04800
C759        C  0.13394029  0.87130228  0.18108121    -0.04200
C760        C  0.12818837  0.81205912  0.17853449    -0.04900
C761        C  0.19251252  0.87594001  0.17494444    -0.04800
C762        C  0.11908198  0.89154454  0.19658985    -0.30200
N763        N  0.11011209  0.90210565  0.16121761     0.16300
C764        C  0.11891538  0.88871886  0.12235336    -0.30200
H765        H  0.11471814  0.89254684  0.08889881     0.18200
C766        C  0.10822068  0.77409966  0.19336552    -0.29200
N767        N  0.09519323  0.74751580  0.15743144     0.15000
C768        C  0.10643041  0.76820195  0.11921063    -0.29200
C769        C  0.23137144  0.89458037  0.18518790    -0.29500
N770        N  0.25462057  0.90457715  0.14640550     0.15500
H771        H  0.24159421  0.89813769  0.21827999     0.18200
C772        C  0.23148470  0.89205176  0.11079347    -0.29500
H773        H  0.24172423  0.89294609  0.07591272     0.18200
H774        H  0.10055249  0.75464222  0.08546075     0.18200
H775        H  0.11526800  0.89840002  0.23159074     0.18200
H776        H  0.10367940  0.76665338  0.22816029     0.18200
C777        C  0.15371558  0.85377604  0.25752961    -0.11200
C778        C  0.15546645  0.85182136  0.30026176    -0.12800
C779        C  0.15333622  0.84688607  0.50726029    -0.11200
C780        C  0.15282623  0.84723236  0.05001123    -0.12800
C781        C  0.07200038  0.68768300  0.19613752    -0.14400
C782        C  0.07274629  0.70440582  0.15951788    -0.29600
H783        H  0.09048121  0.70674007  0.22409230     0.14600
H784        H  0.05686295  0.68512958  0.13020581     0.15200
C785        C  0.29359182  0.91493935  0.14430845    -0.14400
C786        C  0.32722868  0.95141924  0.13167938    -0.29600
H787        H  0.29563400  0.89408802  0.15910570     0.14600
H788        H  0.32516601  0.97318467  0.11956198     0.15200
C789        C  0.09152631  0.92161734  0.16719909    -0.14400
C790        C  0.08737118  0.93884815  0.13455941    -0.29600
H791        H  0.08024731  0.92259863  0.20119945     0.14600
H792        H  0.10007016  0.94051970  0.10065296     0.15200
C793        C  0.05982916  0.67244480  0.37292237    -0.14400
C794        C  0.09445866  0.70494060  0.39152488    -0.29600
H795        H  0.04063106  0.67623904  0.35733273     0.14600
H796        H  0.11199664  0.70034548  0.40951047     0.15200
C797        C  0.30037167  0.92361602  0.40068066    -0.14400
C798        C  0.33451957  0.96262330  0.40236335    -0.29600
H799        H  0.30214200  0.89955585  0.40313056     0.14600
H800        H  0.33280355  0.98669277  0.39969897     0.15200
C801        C  0.06734613  0.90601039  0.38214736    -0.14400
C802        C  0.08139757  0.90183088  0.41760959    -0.29600
H803        H  0.06431296  0.89040541  0.34999961     0.14600
H804        H  0.08138890  0.91548527  0.45029704     0.15200
C805        C  0.38204145  0.86759491  0.28566230    -0.16500
C806        C  0.35302773  0.85950078  0.30868695     0.07600
C807        C  0.35288379  0.38261300  0.33255946     0.09500
C808        C  0.38160054  0.41685511  0.34346899    -0.17300
C809        C  0.39353859  0.87023617  0.01198861    -0.16500
C810        C  0.36235297  0.85932631  0.03221008     0.07600
C811        C  0.35903864  0.38253846  0.06238331     0.09500
C812        C  0.38602186  0.41674240  0.07583276    -0.17300
C813        C  0.39774006  0.59081772  0.21580319    -0.14400
C814        C  0.40404775  0.57549727  0.24779222    -0.29600
H815        H  0.40770694  0.58971219  0.18112971     0.14600
H816        H  0.39303362  0.57469022  0.28238138     0.15200
C817        C  0.42066877  0.80157328  0.23828830    -0.14400
C818        C  0.41236101  0.81668690  0.20863824    -0.29600
H819        H  0.44211657  0.82122397  0.26398227     0.14600
H820        H  0.38784553  0.79610034  0.18630108     0.15200
C821        C  0.18562305  0.58639304  0.24955300    -0.14400
C822        C  0.15048319  0.54712385  0.24891759    -0.29600
H823        H  0.18359483  0.61048857  0.24933998     0.14600
H824        H  0.15247582  0.52289930  0.24739328     0.15200
C825        C  0.43390736  0.59788096  0.49776862    -0.14400
C826        C  0.42323536  0.60954302  0.46592297    -0.29600
H827        H  0.42720391  0.60091724  0.53317055     0.14600
H828        H  0.43027280  0.60582629  0.43078597     0.15200
C829        C  0.42582994  0.82713972  0.46309220    -0.14400
C830        C  0.42567734  0.80743290  0.49558161    -0.29600
H831        H  0.40655153  0.80956273  0.43519260     0.14600
H832        H  0.44177968  0.82374709  0.52553844     0.15200
C833        C  0.19811420  0.57801552  0.49244706    -0.14400
C834        C  0.18657267  0.59178420  0.46514732    -0.29600
H835        H  0.17876370  0.55735097  0.01706955     0.14600
H836        H  0.20973861  0.61964316  0.44792319     0.15200
C837        C  0.34167805  0.65792528  0.38433735    -0.11200
C838        C  0.33740924  0.65622917  0.34134080    -0.12800
C839        C  0.33556529  0.65701195  0.13439189    -0.11200
C840        C  0.34010090  0.66205089  0.09129240    -0.12800
C841        C  0.34476071  0.65909694  0.53687616     0.32000
C842        C  0.34667323  0.66252590  0.93862328     0.32100
C843        C  0.36651390  0.64509971  0.50680062    -0.04100
C844        C  0.30331547  0.63237257  0.51420525    -0.04900
C845        C  0.36527987  0.70016363  0.51457290    -0.04800
C846        C  0.36452104  0.64639187  0.96137796    -0.04200
C847        C  0.30542481  0.63932763  0.96492176    -0.04900
C848        C  0.36897412  0.70436666  0.96336209    -0.04800
C849        C  0.38011759  0.62741648  0.94597523    -0.30200
N850        N  0.38776427  0.61646170  0.98171658     0.16300
C851        C  0.38803617  0.63221631  0.51480693    -0.30200
H852        H  0.39382747  0.62869694  0.54749957     0.18200
C853        C  0.26670182  0.61370368  0.95206579    -0.29200
N854        N  0.24038417  0.59707976  0.49239060     0.15000
C855        C  0.26282953  0.60959382  0.52887728    -0.29200
C856        C  0.39120532  0.74267891  0.94809520    -0.29500
N857        N  0.40100818  0.76378156  0.49328107     0.15500
H858        H  0.39690064  0.74983322  0.91307546     0.18200
C859        C  0.38808896  0.74037047  0.52930383    -0.29500
H860        H  0.39524633  0.75186432  0.56373260     0.18200
H861        H  0.25089157  0.60479414  0.56346757     0.18200
H862        H  0.38519247  0.62145341  0.91104325     0.18200
H863        H  0.25770952  0.60555134  0.91766975     0.18200
C864        C  0.34360105  0.65769036  0.78676568     0.32000
C865        C  0.34234491  0.65701389  0.68986579     0.32100
C866        C  0.36255431  0.64061057  0.75657061    -0.04100
C867        C  0.30100549  0.63251640  0.76562053    -0.04900
C868        C  0.36634332  0.69923638  0.76443501    -0.04800
C869        C  0.36180253  0.64038055  0.70895105    -0.04200
C870        C  0.30046989  0.63213832  0.71792335    -0.04900
C871        C  0.36542135  0.69864528  0.71686675    -0.04800
C872        C  0.38067814  0.62485300  0.69020031    -0.30200
N873        N  0.39297998  0.61562902  0.72327016     0.16300
C874        C  0.38212730  0.62512388  0.76381468    -0.30200
H875        H  0.38785338  0.62109232  0.79625418     0.18200
C876        C  0.26002123  0.61080829  0.70859106    -0.29200
N877        N  0.23580024  0.59764862  0.74741062     0.15000
C878        C  0.26073037  0.61149992  0.78214130    -0.29200
C879        C  0.38454418  0.73803440  0.70616393    -0.29500
N880        N  0.39765843  0.76272096  0.74407993     0.15500
H881        H  0.38688552  0.74774813  0.67308053     0.18200
C882        C  0.38671045  0.73942730  0.77974087    -0.29500
H883        H  0.39063035  0.75027681  0.81456551     0.18200
H884        H  0.25073675  0.60877601  0.81734167     0.18200
H885        H  0.38527354  0.62062304  0.65453620     0.18200
H886        H  0.24937606  0.60749465  0.67587425     0.18200
O887        O  0.03899270  0.93176642  0.87119893    -0.73200
O888        O  0.06982433  0.95592997  0.93630233    -0.52200
C889        C  0.06152020  0.93519206  0.89948861     0.80500
O890        O  0.07187220  0.62570780  0.89435163    -0.57800
O891        O  0.00656550  0.59347452  0.87823986    -0.50900
C892        C  0.04378565  0.62609832  0.88320557     0.72500
O893        O  0.13377618  0.57895895  0.92811681    -0.72400
O894        O  0.11296108  0.52855181  0.97364167    -0.53000
C895        C  0.14037231  0.56127942  0.95298183     0.78500
O896        O  0.93946144  0.92249318  0.85291731    -0.57600
O897        O  0.49012229  0.58352474  0.84492914    -0.50700
C898        C  0.49054429  0.55420883  0.83737326     0.75100
Zr899      Zr  0.01121487  0.96632896  0.86126998     2.54700
O900        O  0.07211842  0.52259342  0.82186158    -0.78100
O901        O  0.60407843  0.05510989  0.80305003    -0.91500
Zr902      Zr  0.07828128  0.57488602  0.90824063     2.64700
O903        O  0.12173560  0.60188457  0.83960024    -0.96500
O904        O  0.13424874  0.64105992  0.93964756    -0.78500
O905        O  0.06762389  0.51180836  0.90180366    -0.81900
O906        O  0.02301619  0.52937644  0.86028001    -2.16600
O907        O  0.38575020  0.94353765  0.87921657    -0.65300
O908        O  0.40817582  0.00866316  0.88992458    -0.49900
C909        C  0.37996431  0.97001941  0.88109481     0.73500
O910        O  0.44328294  0.45375124  0.53099931    -0.58200
O911        O  0.07562556  0.00320226  0.52506510    -0.50200
C912        C  0.44315139  0.93034026  0.53109892     0.75300
O913        O  0.42382909  0.53555303  0.02147856    -0.69600
O914        O  0.44278822  0.56560659  0.95563854    -0.48300
C915        C  0.42500578  0.55780459  0.99449464     0.76700
O916        O  0.43583536  0.88334787  0.92049202    -0.64900
O917        O  0.48782857  0.90288946  0.96172570    -0.52100
C918        C  0.45554561  0.87556139  0.94039548     0.75000
Zr919      Zr  0.43659716  0.94035605  0.90565561     2.77500
O920        O  0.36969625  0.89227157  0.94408755    -0.95700
O921        O  0.41676018  0.89193087  0.84245736    -0.76500
Zr922      Zr  0.45462316  0.50218248  0.01509324     2.70900
O923        O  0.44823736  0.03432163  0.58294936    -0.77700
O924        O  0.05460798  0.61260523  0.53985626    -0.96800
Zr925      Zr  0.03521119  0.97880620  0.97380786     2.21500
Zr926      Zr  0.47766450  0.54742067  0.90998913     2.11100
O927        O  0.43304305  0.99009075  0.94578982    -2.45500
O928        O  0.48653738  0.99396152  0.95207288    -0.77500
O929        O  0.48755626  0.00342356  0.87463105    -0.69700
O930        O  0.05964284  0.55033578  0.98209847    -2.30700
O931        O  0.50558696  0.96412326  0.89745001    -2.26900
O932        O  0.02225702  0.57169529  0.93787729    -0.71500
H933        H  0.02908811  0.54261378  0.83344919     0.80500
H934        H  0.08796304  0.57741375  0.48292847     0.81600
H935        H  0.40607895  0.98105797  0.95346621     0.83800
H936        H  0.50580730  0.94360430  0.88102042     0.81400
H937        H  0.13671974  0.63657319  0.97045366     0.44500
H938        H  0.08173046  0.62079697  0.53026919     0.43400
H939        H  0.42053321  0.02039330  0.57317113     0.43100
H940        H  0.36035886  0.90784143  0.95566223     0.41000
H941        H  0.39143876  0.86593258  0.85321435     0.44200
H942        H  0.62141013  0.04784677  0.80749391     0.39000
H943        H  0.09356140  0.52104701  0.82767176     0.45100
H944        H  0.13569280  0.63130228  0.84240852     0.41500
H945        H  0.35136160  0.87403840  0.91985103     0.46400
H946        H  0.04791795  0.94333919  0.79363539     0.45100
H947        H  0.14344955  0.60012751  0.84285591     0.45300
H948        H  0.54277406  0.60835439  0.54083531     0.45600
O949        O  0.09429392  0.99666929  0.64606849    -0.73200
O950        O  0.05382535  0.94377931  0.69059239    -0.52200
C951        C  0.08555524  0.96575719  0.66483110     0.80500
O952        O  0.07660819  0.62678149  0.70723299    -0.57800
O953        O  0.02628331  0.61167584  0.66646888    -0.50900
C954        C  0.06055540  0.63718105  0.68462158     0.72500
O955        O  0.11615756  0.56251450  0.74411043    -0.72400
O956        O  0.08550481  0.49556163  0.74402765    -0.53000
C957        C  0.11796441  0.53370873  0.74581934     0.78500
O958        O  0.03776778  0.04933083  0.58723367    -0.57600
O959        O  0.41048419  0.46083500  0.60587655    -0.50700
C960        C  0.39821737  0.42573310  0.61242593     0.75100
Zr961      Zr  0.04576542  0.00612912  0.62389096     2.54700
O962        O  0.11345455  0.55754463  0.58555738    -0.78100
O963        O  0.45345933  0.88173497  0.58122223    -0.91500
Zr964      Zr  0.06137427  0.56515112  0.73502215     2.64700
O965        O  0.13338049  0.62263439  0.74127897    -0.96500
O966        O  0.06713567  0.60381426  0.80309582    -0.78500
O967        O  0.06253837  0.51745321  0.69383993    -0.81900
O968        O  0.04808966  0.55767957  0.65897276    -2.16600
O969        O  0.36781639  0.92640550  0.70138847    -0.65300
O970        O  0.38916082  0.98197136  0.66513583    -0.49900
C971        C  0.36143369  0.94828494  0.68423520     0.73500
O972        O  0.53214631  0.51863362  0.79230897    -0.58200
O973        O  0.95333128  0.90364021  0.76766249    -0.50200
C974        C  0.51410371  0.98481540  0.80014468     0.75300
O975        O  0.46583213  0.56762455  0.76045460    -0.69600
O976        O  0.44768299  0.55974138  0.68938754    -0.48300
C977        C  0.44884450  0.57168316  0.73072284     0.76700
O978        O  0.43000590  0.88142064  0.75254353    -0.64900
O979        O  0.49617250  0.90736259  0.74806847    -0.52100
C980        C  0.45779443  0.87822093  0.75613317     0.75000
Zr981      Zr  0.42358635  0.92741872  0.71817334     2.77500
O982        O  0.37515852  0.89704632  0.78475541    -0.95700
O983        O  0.37783640  0.86627815  0.67066573    -0.76500
Zr984      Zr  0.51090197  0.54830943  0.75262521     2.70100
O985        O  0.52982620  0.11675630  0.76199989    -0.77700
O986        O  0.95834622  0.53359044  0.82375109    -0.96800
Zr987      Zr  0.00988284  0.95706363  0.72285158     2.21500
Zr988      Zr  0.46313022  0.51796135  0.65001724     2.11100
O989        O  0.44232603  0.99501713  0.72566313    -2.45500
O990        O  0.49020670  0.98795606  0.71543150    -0.77500
O991        O  0.47909894  0.98043059  0.67545559    -0.69700
O992        O  0.00719792  0.49929264  0.76936231    -2.30700
O993        O  0.47429012  0.92309366  0.68220284    -2.26900
O994        O  0.99685582  0.55124772  0.73758300    -0.71500
H995        H  0.07037408  0.58399328  0.64744210     0.80500
H996        H  0.00672679  0.48993702  0.79753568     0.81600
H997        H  0.42060144  0.99481221  0.73908401     0.83800
H998        H  0.46690291  0.89654724  0.67706363     0.81400
H999        H  0.06669144  0.62500541  0.79333266     0.44500
H1000       H  0.97166635  0.55957905  0.80956695     0.43400
H1001       H  0.53367479  0.12616515  0.73145309     0.43100
H1002       H  0.35427055  0.89986399  0.78095247     0.41000
H1003       H  0.35606142  0.84579974  0.69171978     0.44200
H1004       H  0.44396516  0.86406597  0.60672834     0.39000
H1005       H  0.13032646  0.57633086  0.61048549     0.45100
H1006       H  0.14365546  0.63223733  0.71032114     0.41500
H1007       H  0.36055643  0.86752950  0.78068294     0.46400
H1008       H  0.03971867  0.92978259  0.59978094     0.45100
H1009       H  0.13490546  0.64475441  0.75800013     0.45300
H1010       H  0.56286136  0.62935445  0.79991605     0.45600
C1011       C  0.15835575  0.84549482  0.85383041     0.32000
C1012       C  0.15753330  0.84555249  0.95123744     0.32100
C1013       C  0.14100812  0.86375297  0.88330006    -0.04100
C1014       C  0.13374094  0.80379237  0.87627687    -0.04900
C1015       C  0.20008016  0.86895841  0.87589486    -0.04800
C1016       C  0.14075449  0.86384299  0.93098491    -0.04200
C1017       C  0.13348157  0.80400593  0.92419838    -0.04900
C1018       C  0.19948147  0.86858146  0.92386010    -0.04800
C1019       C  0.12358480  0.88095854  0.94880913    -0.30200
N1020       N  0.11326710  0.89089509  0.91465881     0.16300
C1021       C  0.12375541  0.88070930  0.87468330    -0.30200
H1022       H  0.11969842  0.88566293  0.84177648     0.18200
C1023       C  0.11405079  0.76466961  0.93477422    -0.29200
N1024       N  0.10182596  0.74053635  0.89655329     0.15000
C1025       C  0.11384020  0.76395600  0.86079360    -0.29200
C1026       C  0.23912785  0.88877544  0.93424232    -0.29500
N1027       N  0.26380562  0.90245714  0.89597032     0.15500
H1028       H  0.24919702  0.89213653  0.96735709     0.18200
C1029       C  0.24043380  0.89042240  0.86037017    -0.29500
H1030       H  0.25161349  0.89495609  0.82550783     0.18200
H1031       H  0.11139801  0.75346748  0.82591506     0.18200
H1032       H  0.11874845  0.88579169  0.98422539     0.18200
H1033       H  0.11142361  0.75469672  0.96780024     0.18200
C1034       C  0.15335923  0.84627672  0.60566951     0.32000
C1035       C  0.15347188  0.84605648  0.70304263     0.32100
C1036       C  0.13594737  0.86486411  0.63618456    -0.04100
C1037       C  0.12975794  0.80439513  0.62852365    -0.04900
C1038       C  0.19508022  0.87020574  0.62784283    -0.04800
C1039       C  0.13569077  0.86401995  0.68405364    -0.04200
C1040       C  0.13045257  0.80506033  0.67629873    -0.04900
C1041       C  0.19426446  0.86977511  0.67564399    -0.04800
C1042       C  0.12457832  0.88643231  0.70322848    -0.30200
N1043       N  0.11890714  0.90179777  0.67034470     0.16300
C1044       C  0.12571606  0.88911206  0.62948503    -0.30200
H1045       H  0.12350473  0.89697765  0.59735983     0.18200
C1046       C  0.11110256  0.76624756  0.68834227    -0.29200
N1047       N  0.09824266  0.74131234  0.65088284     0.15000
C1048       C  0.10892363  0.76391519  0.61448390    -0.29200
C1049       C  0.23319401  0.89417475  0.68805205    -0.29500
N1050       N  0.25853928  0.90885149  0.65064587     0.15500
H1051       H  0.24212211  0.90091503  0.72237729     0.18200
C1052       C  0.23591050  0.89505617  0.61387602    -0.29500
H1053       H  0.24823776  0.90213630  0.57952024     0.18200
H1054       H  0.10308535  0.75198821  0.58007704     0.18200
H1055       H  0.12183949  0.89217779  0.73892519     0.18200
H1056       H  0.10686221  0.75690047  0.72222236     0.18200
C1057       C  0.15518772  0.84603463  0.75703621    -0.11200
C1058       C  0.15713543  0.84575163  0.79982171    -0.12800
C1059       C  0.15535253  0.84616927  0.00624663    -0.11200
C1060       C  0.15339687  0.84659062  0.55080729    -0.12800
C1061       C  0.08335078  0.68152645  0.68068963    -0.14400
C1062       C  0.07661290  0.69798646  0.65038716    -0.29600
H1063       H  0.10735280  0.70169914  0.70373617     0.14600
H1064       H  0.05495430  0.67856388  0.62481509     0.15200
C1065       C  0.30198250  0.93242997  0.65030458    -0.14400
C1066       C  0.31898292  0.93142627  0.68501649    -0.29600
H1067       H  0.32052389  0.94803711  0.62022353     0.14600
H1068       H  0.30001329  0.91246288  0.71299617     0.15200
C1069       C  0.10254139  0.92282581  0.68013785    -0.14400
C1070       C  0.11041856  0.95212142  0.65519422    -0.29600
H1071       H  0.08252231  0.91416031  0.71029234     0.14600
H1072       H  0.13224824  0.96333332  0.62655925     0.15200
C1073       C  0.05543740  0.66686014  0.87815776    -0.14400
C1074       C  0.09043757  0.70062715  0.89468182    -0.29600
H1075       H  0.03448722  0.66910094  0.86415526     0.14600
H1076       H  0.10958769  0.69753176  0.91165181     0.15200
C1077       C  0.30558707  0.91812534  0.89383235    -0.14400
C1078       C  0.33742603  0.95405798  0.87623511    -0.29600
H1079       H  0.31185956  0.90169968  0.91132615     0.14600
H1080       H  0.33227793  0.97311572  0.86291491     0.15200
C1081       C  0.07832418  0.91376802  0.88960222    -0.14400
C1082       C  0.09589490  0.91085445  0.92187298    -0.29600
H1083       H  0.07532462  0.89963075  0.85639546     0.14600
H1084       H  0.09656936  0.92340098  0.95554911     0.15200
C1085       C  0.47224561  0.95833933  0.79575520    -0.16500
C1086       C  0.44606808  0.96095234  0.79970024     0.07600
C1087       C  0.43538867  0.48278438  0.80858587     0.09500
C1088       C  0.45550295  0.51757690  0.81971458    -0.17300
C1089       C  0.40610265  0.88858180  0.53631825    -0.16500
C1090       C  0.37127966  0.86199055  0.54879101     0.07600
C1091       C  0.34665177  0.35986323  0.57961529     0.09500
C1092       C  0.35774925  0.38987807  0.60220397    -0.17300
C1093       C  0.41322471  0.59795019  0.71357210    -0.14400
C1094       C  0.42885693  0.59056804  0.74443927    -0.29600
H1095       H  0.41624045  0.59042788  0.67844665     0.14600
H1096       H  0.42708779  0.59833986  0.77973836     0.15200
C1097       C  0.41009590  0.80334439  0.74553352    -0.14400
C1098       C  0.44389845  0.83683766  0.76470646    -0.29600
H1099       H  0.39356073  0.80776125  0.72530406     0.14600
H1100       H  0.46366118  0.83408543  0.78080121     0.15200
C1101       C  0.19464516  0.58490557  0.75165415    -0.14400
C1102       C  0.15971321  0.54544357  0.74891204    -0.29600
H1103       H  0.19211343  0.60880072  0.75453385     0.14600
H1104       H  0.16207923  0.52143188  0.74595212     0.15200
C1105       C  0.40524553  0.57628493  0.00704651    -0.14400
C1106       C  0.40663926  0.59812585  0.97604130    -0.29600
H1107       H  0.38949498  0.57161579  0.03974121     0.14600
H1108       H  0.42155081  0.60123831  0.94307289     0.15200
C1109       C  0.43682750  0.83197964  0.94225088    -0.14400
C1110       C  0.42913736  0.81357284  0.98120286    -0.29600
H1111       H  0.42418943  0.81385246  0.91148882     0.14600
H1112       H  0.43951019  0.83206167  0.01224817     0.15200
C1113       C  0.19819993  0.57642891  0.98922172    -0.14400
C1114       C  0.18299399  0.58109906  0.95613122    -0.29600
H1115       H  0.17607550  0.55184891  0.51263096     0.14600
H1116       H  0.20346104  0.60337238  0.93107533     0.15200
C1117       C  0.34620415  0.66030123  0.88414777    -0.11200
C1118       C  0.34494025  0.65884157  0.84094412    -0.12800
C1119       C  0.34290371  0.65763740  0.63515089    -0.11200
C1120       C  0.34393167  0.65851247  0.59164525    -0.12800
C1121       C  0.83975662  0.15633378  0.02205316     0.32000
C1122       C  0.84395284  0.16247018  0.42382660     0.32100
C1123       C  0.85753979  0.13810731  0.99192398    -0.04100
C1124       C  0.79926581  0.13500548  0.99863604    -0.04900
C1125       C  0.86585332  0.19903044  0.00143093    -0.04800
C1126       C  0.86616132  0.14805559  0.44064838    -0.04200
C1127       C  0.80370633  0.13632180  0.45276423    -0.04900
C1128       C  0.86568797  0.20354652  0.45149019    -0.04800
C1129       C  0.88580852  0.13399054  0.41995163    -0.30200
N1130       N  0.90024977  0.12598551  0.45166467     0.16300
C1131       C  0.87620700  0.12184602  0.99918724    -0.30200
H1132       H  0.88080970  0.11657595  0.03158812     0.18200
C1133       C  0.76515689  0.12129472  0.44508769    -0.29200
N1134       N  0.73820871  0.10930536  0.97713009     0.15000
C1135       C  0.75952414  0.11731581  0.01327726    -0.29200
C1136       C  0.88374398  0.24256818  0.44091235    -0.29500
N1137       N  0.89933020  0.26364698  0.98453303     0.15500
H1138       H  0.88543404  0.25218304  0.40801236     0.18200
C1139       C  0.88578557  0.23843208  0.01890437    -0.29500
H1140       H  0.88715407  0.24741761  0.05422487     0.18200
H1141       H  0.74777345  0.11332857  0.04791058     0.18200
H1142       H  0.88896044  0.12936891  0.38405348     0.18200
H1143       H  0.75490282  0.12103040  0.41337621     0.18200
C1144       C  0.83388845  0.15846565  0.27240027     0.32000
C1145       C  0.83326028  0.15376746  0.17458649     0.32100
C1146       C  0.84713554  0.13554322  0.24487051    -0.04100
C1147       C  0.79209652  0.13631378  0.25062890    -0.04900
C1148       C  0.86040695  0.19898554  0.24647557    -0.04800
C1149       C  0.84697427  0.13336509  0.19690559    -0.04200
C1150       C  0.79247221  0.13463778  0.20237181    -0.04900
C1151       C  0.85963806  0.19586209  0.19853501    -0.04800
C1152       C  0.85727040  0.10951576  0.18148968    -0.30200
N1153       N  0.86332801  0.09709576  0.21725159     0.16300
C1154       C  0.85719475  0.11254240  0.25592145    -0.30200
H1155       H  0.86071108  0.10818128  0.28947518     0.18200
C1156       C  0.75334215  0.11391808  0.19106822    -0.29200
N1157       N  0.72873529  0.10204087  0.22905051     0.15000
C1158       C  0.75166417  0.11555467  0.26549848    -0.29200
C1159       C  0.88010251  0.23387802  0.18348195    -0.29500
N1160       N  0.89331321  0.26056888  0.21928617     0.15500
H1161       H  0.88394768  0.24133311  0.14878478     0.18200
C1162       C  0.88192370  0.23999716  0.25765232    -0.29500
H1163       H  0.88701971  0.25357584  0.29136071     0.18200
H1164       H  0.74006926  0.11202238  0.30015776     0.18200
H1165       H  0.86039223  0.10180469  0.14662691     0.18200
H1166       H  0.74341717  0.10858618  0.15735409     0.18200
O1167       O  0.55706288  0.45354483  0.36088545    -0.73200
O1168       O  0.56028121  0.44510903  0.43249355    -0.52200
C1169       C  0.56748580  0.44260581  0.39068446     0.80500
O1170       O  0.58569238  0.13617419  0.41846587    -0.57800
O1171       O  0.52857774  0.11467938  0.38647164    -0.50900
C1172       C  0.56503260  0.14253689  0.39882407     0.72500
O1173       O  0.62958099  0.07787434  0.46984537    -0.72400
O1174       O  0.59838797  0.01325444  0.48838037    -0.53000
C1175       C  0.62992290  0.05072019  0.48410584     0.78500
O1176       O  0.44870129  0.44256818  0.35080147    -0.57600
O1177       O  0.92272130  0.96230182  0.33930665    -0.50700
C1178       C  0.91447872  0.92886583  0.34714040     0.75100
Zr1179     Zr  0.52151510  0.48155667  0.35499694     2.54700
O1180       O  0.58496476  0.04401041  0.32079146    -0.78100
O1181       O  0.01462544  0.43281342  0.27899635    -0.91500
Zr1182     Zr  0.58095675  0.07981839  0.43863596     2.64700
O1183       O  0.63473670  0.11018450  0.37896859    -0.96500
O1184       O  0.63048263  0.14082514  0.48322952    -0.78500
O1185       O  0.56878260  0.01743917  0.41494646    -0.81900
O1186       O  0.53953840  0.05190937  0.37431898    -2.16600
O1187       O  0.87699245  0.43094761  0.43198156    -0.65300
O1188       O  0.89818087  0.48519633  0.39330335    -0.49900
C1189       C  0.87035798  0.45177856  0.41307548     0.73500
O1190       O  0.02442486  0.01223334  0.03723552    -0.58200
O1191       O  0.46352210  0.41846608  0.01387141    -0.50200
C1192       C  0.01311408  0.47875443  0.04125244     0.75300
O1193       O  0.98215891  0.08846990  0.48421864    -0.69600
O1194       O  0.94642255  0.06185600  0.42148604    -0.48300
C1195       C  0.95830370  0.08494363  0.45723730     0.76700
O1196       O  0.93635898  0.38722810  0.48305991    -0.64900
O1197       O  0.00252552  0.41307561  0.47840629    -0.52100
C1198       C  0.96386924  0.38351988  0.48513793     0.75000
Zr1199     Zr  0.93393237  0.43450618  0.44757195     2.77500
O1200       O  0.89329741  0.41500152  0.51794741    -0.95700
O1201       O  0.89563061  0.36893308  0.40666967    -0.76500
Zr1202     Zr  0.00111297  0.04616065  0.49770006     2.70900
O1203       O  0.94916058  0.54697535  0.04958634    -0.77700
O1204       O  0.49289157  0.05827010  0.07509711    -0.96800
Zr1205     Zr  0.52740058  0.46929041  0.46857496     2.21500
Zr1206     Zr  0.96710552  0.02436670  0.38315611     2.11100
O1207       O  0.94942805  0.49955628  0.45571313    -2.45500
O1208       O  0.98723849  0.48229028  0.49048472    -0.77500
O1209       O  0.99116062  0.49007989  0.40794079    -0.69700
O1210       O  0.54525015  0.03624630  0.50223516    -2.30700
O1211       O  0.98899826  0.43719236  0.41292981    -2.26900
O1212       O  0.52398634  0.07768236  0.46348113    -0.71500
H1213       H  0.55294058  0.07092792  0.35077805     0.80500
H1214       H  0.52469251  0.02178860  0.05440391     0.81600
H1215       H  0.92664640  0.49811084  0.46723319     0.83800
H1216       H  0.98053132  0.41022667  0.40764951     0.81400
H1217       H  0.65064761  0.16113470  0.46107314     0.44500
H1218       H  0.51723121  0.08255482  0.06080047     0.43400
H1219       H  0.92165095  0.52409672  0.03982838     0.43100
H1220       H  0.88575237  0.43283063  0.52211359     0.41000
H1221       H  0.87099311  0.35074609  0.42638067     0.44200
H1222       H  0.99519515  0.40418038  0.28767241     0.39000
H1223       H  0.60668114  0.04459934  0.33104043     0.45100
H1224       H  0.63859985  0.13431194  0.37053126     0.41500
H1225       H  0.86760276  0.38777299  0.51103304     0.46400
H1226       H  0.54711112  0.44557864  0.28585737     0.45100
H1227       H  0.65976219  0.12138982  0.39392739     0.45300
H1228       H  0.03940920  0.12541214  0.03007975     0.45600
O1229       O  0.56118004  0.46362112  0.12224291    -0.73200
O1230       O  0.54796044  0.43904568  0.19069660    -0.52200
C1231       C  0.56436894  0.44552271  0.15103311     0.80500
O1232       O  0.56891826  0.12888590  0.18965033    -0.57800
O1233       O  0.51989760  0.11060522  0.14403780    -0.50900
C1234       C  0.55305382  0.13762275  0.16440800     0.72500
O1235       O  0.61203662  0.06447163  0.22404870    -0.72400
O1236       O  0.58155619  0.00140908  0.24672393    -0.53000
C1237       C  0.61348942  0.03809186  0.23831119     0.78500
O1238       O  0.45457338  0.44957483  0.08842936    -0.57600
O1239       O  0.00334915  0.08653257  0.10417853    -0.50700
C1240       C  0.00855002  0.06172224  0.08881008     0.75100
Zr1241     Zr  0.52368024  0.48879479  0.11179215     2.54700
O1242       O  0.58663216  0.04973333  0.08221147    -0.78100
O1243       O  0.10079305  0.54805761  0.05743779    -0.91500
Zr1244     Zr  0.56112910  0.07044988  0.21126315     2.64700
O1245       O  0.63007464  0.12534548  0.18358891    -0.96500
O1246       O  0.58645635  0.10972652  0.28182522    -0.78500
O1247       O  0.55738489  0.01401516  0.17946503    -0.81900
O1248       O  0.53375192  0.05086635  0.13754952    -2.16600
O1249       O  0.88213356  0.44578178  0.10959972    -0.65300
O1250       O  0.90931673  0.51205167  0.12604765    -0.49900
C1251       C  0.88048406  0.47507932  0.11177803     0.73500
O1252       O  0.89367371  0.91197687  0.25478614    -0.58200
O1253       O  0.45417502  0.41398832  0.27495896    -0.50200
C1254       C  0.91085985  0.39391907  0.25900013     0.75300
O1255       O  0.88830508  0.00766535  0.25178197    -0.69600
O1256       O  0.93609537  0.06535790  0.21741407    -0.48300
C1257       C  0.90191979  0.04203946  0.23854725     0.76700
O1258       O  0.90890756  0.37125239  0.16593304    -0.64900
O1259       O  0.96455245  0.38755091  0.19551873    -0.52100
C1260       C  0.92899006  0.36161221  0.18045593     0.75000
Zr1261     Zr  0.92285772  0.43291854  0.14322924     2.77500
O1262       O  0.86021697  0.38740988  0.18897153    -0.95700
O1263       O  0.90292102  0.38208882  0.08172886    -0.76500
Zr1264     Zr  0.92623420  0.98279917  0.25813404     2.70100
O1265       O  0.86635574  0.43937465  0.29096732    -0.77700
O1266       O  0.49361625  0.06136339  0.32122287    -0.96800
Zr1267     Zr  0.51030680  0.45969648  0.22425477     2.21500
Zr1268     Zr  0.96501243  0.04302590  0.16594845     2.11100
O1269       O  0.91672668  0.48040536  0.18516664    -2.45500
O1270       O  0.96973865  0.48180255  0.19432287    -0.77500
O1271       O  0.98594824  0.49874488  0.15829935    -0.69700
O1272       O  0.51644977  0.01737022  0.26534593    -2.30700
O1273       O  0.99104235  0.45257299  0.13527347    -2.26900
O1274       O  0.49928916  0.06146261  0.22374408    -0.71500
H1275       H  0.55095310  0.07275090  0.11750152     0.80500
H1276       H  0.52546036  0.02298967  0.29517831     0.81600
H1277       H  0.88958359  0.47183246  0.18884859     0.83800
H1278       H  0.99163992  0.43206221  0.11945656     0.81400
H1279       H  0.58931974  0.13425846  0.27824432     0.44500
H1280       H  0.51513550  0.08479942  0.30313976     0.43400
H1281       H  0.84811477  0.43416587  0.26825429     0.43100
H1282       H  0.84773631  0.40076113  0.19347717     0.41000
H1283       H  0.87489776  0.35812762  0.09045046     0.44200
H1284       H  0.11570250  0.53794043  0.06144785     0.39000
H1285       H  0.60757091  0.05732950  0.10250206     0.45100
H1286       H  0.62756216  0.13094732  0.15343277     0.41500
H1287       H  0.84199577  0.36370826  0.16859579     0.46400
H1288       H  0.55579688  0.45893292  0.04578608     0.45100
H1289       H  0.63880348  0.14966409  0.20274670     0.45300
H1290       H  0.90354953  0.01587714  0.32963559     0.45600
C1291       C  0.66210370  0.35017967  0.33608242     0.32000
C1292       C  0.65958151  0.34718225  0.43353050     0.32100
C1293       C  0.64640598  0.36996253  0.36643020    -0.04100
C1294       C  0.63497096  0.30793509  0.35755584    -0.04900
C1295       C  0.70275161  0.37087008  0.35908983    -0.04800
C1296       C  0.64537332  0.36857737  0.41432387    -0.04200
C1297       C  0.63406167  0.30681335  0.40536349    -0.04900
C1298       C  0.70093835  0.36888645  0.40688298    -0.04800
C1299       C  0.63059454  0.38781111  0.43285825    -0.30200
N1300       N  0.62227475  0.40030481  0.39929261     0.16300
C1301       C  0.63178605  0.38977962  0.35880809    -0.30200
H1302       H  0.62839655  0.39597553  0.32627543     0.18200
C1303       C  0.60818450  0.26688595  0.41579402    -0.29200
N1304       N  0.59334802  0.24366572  0.37724396     0.15000
C1305       C  0.60899748  0.26805697  0.34175267    -0.29200
C1306       C  0.73996758  0.39388197  0.41994984    -0.29500
N1307       N  0.76580650  0.41075431  0.38303527     0.15500
H1308       H  0.74871523  0.40050967  0.45437097     0.18200
C1309       C  0.74363753  0.39761163  0.34610430    -0.29500
H1310       H  0.75637475  0.40729343  0.31231976     0.18200
H1311       H  0.60320871  0.25750551  0.30691677     0.18200
H1312       H  0.62560767  0.39197873  0.46843442     0.18200
H1313       H  0.60137383  0.25533688  0.44902465     0.18200
C1314       C  0.65947959  0.35306228  0.08698110     0.32000
C1315       C  0.66236619  0.35236991  0.18371966     0.32100
C1316       C  0.64093413  0.36939527  0.11920897    -0.04100
C1317       C  0.63782147  0.31102760  0.10867015    -0.04900
C1318       C  0.70186231  0.37823071  0.10726483    -0.04800
C1319       C  0.64232788  0.36869764  0.16659353    -0.04200
C1320       C  0.63954940  0.31126213  0.15619229    -0.04900
C1321       C  0.70319232  0.37776742  0.15475777    -0.04800
C1322       C  0.62572349  0.38565821  0.18739389    -0.30200
N1323       N  0.61449340  0.39693162  0.15569504     0.16300
C1324       C  0.62357157  0.38727661  0.11412094    -0.30200
H1325       H  0.61791976  0.39261587  0.08247435     0.18200
C1326       C  0.61787997  0.27162191  0.16752133    -0.29200
N1327       N  0.60286606  0.24663889  0.12988978     0.15000
C1328       C  0.61469879  0.27033167  0.09412709    -0.29200
C1329       C  0.74338868  0.39944961  0.16308190    -0.29500
N1330       N  0.76642466  0.41349319  0.12384433     0.15500
H1331       H  0.75489624  0.40251762  0.19512947     0.18200
C1332       C  0.74155496  0.40056054  0.08970256    -0.29500
H1333       H  0.75123169  0.40427286  0.05437051     0.18200
H1334       H  0.60689381  0.25879792  0.05982831     0.18200
H1335       H  0.62229692  0.38985422  0.22334511     0.18200
H1336       H  0.61279935  0.26198763  0.20139330     0.18200
C1337       C  0.66317252  0.35200750  0.23816410    -0.11200
C1338       C  0.66300208  0.35144534  0.28153171    -0.12800
C1339       C  0.65897914  0.34521454  0.48791309    -0.11200
C1340       C  0.65906336  0.35519601  0.03281903    -0.12800
C1341       C  0.57526644  0.18223189  0.16230002    -0.14400
C1342       C  0.57779415  0.20239152  0.12802952    -0.29600
H1343       H  0.59366515  0.20006162  0.19072370     0.14600
H1344       H  0.56211071  0.18538353  0.09773172     0.15200
C1345       C  0.80684251  0.42617953  0.11888273    -0.14400
C1346       C  0.84002752  0.46285868  0.10449841    -0.29600
H1347       H  0.81100330  0.40669796  0.13324028     0.14600
H1348       H  0.83721488  0.48475192  0.09467101     0.15200
C1349       C  0.59462546  0.41443802  0.16720501    -0.14400
C1350       C  0.58755055  0.43063771  0.13727797    -0.29600
H1351       H  0.58491727  0.41436461  0.20231533     0.14600
H1352       H  0.59805667  0.43231551  0.10230392     0.15200
C1353       C  0.58583482  0.18556236  0.39285955    -0.14400
C1354       C  0.57073024  0.20053593  0.37454267    -0.29600
H1355       H  0.61560975  0.20706171  0.40665644     0.14600
H1356       H  0.54207069  0.18087124  0.35831032     0.15200
C1357       C  0.80953927  0.43672571  0.38272662    -0.14400
C1358       C  0.82740531  0.43406097  0.41480295    -0.29600
H1359       H  0.82764743  0.45515787  0.35402035     0.14600
H1360       H  0.80847712  0.41282789  0.44118391     0.15200
C1361       C  0.58882357  0.42602337  0.37670119    -0.14400
C1362       C  0.60514619  0.42047545  0.40808054    -0.29600
H1363       H  0.58987677  0.41730723  0.34161050     0.14600
H1364       H  0.60370922  0.42978900  0.44289975     0.15200
C1365       C  0.87750157  0.35320673  0.27187839    -0.16500
C1366       C  0.85084038  0.33932586  0.30104136     0.07600
C1367       C  0.84666892  0.85710500  0.33693827     0.09500
C1368       C  0.87269418  0.89185813  0.34905787    -0.17300
C1369       C  0.97100510  0.45195891  0.04600077    -0.16500
C1370       C  0.94789498  0.45760205  0.05855764     0.07600
C1371       C  0.94901185  0.98705696  0.07734124     0.09500
C1372       C  0.97412823  0.02115393  0.08873653    -0.17300
C1373       C  0.87999550  0.07652353  0.21266519    -0.14400
C1374       C  0.87771266  0.05578431  0.24554356    -0.29600
H1375       H  0.89618264  0.07888833  0.18083233     0.14600
H1376       H  0.85916917  0.04971209  0.27640004     0.15200
C1377       C  0.91448536  0.30340476  0.21670840    -0.14400
C1378       C  0.90824068  0.31799406  0.18360263    -0.29600
H1379       H  0.93469632  0.32401684  0.24298491     0.14600
H1380       H  0.88499108  0.29706593  0.16005330     0.15200
C1381       C  0.68778164  0.08752200  0.22859274    -0.14400
C1382       C  0.65479010  0.05212818  0.24564972    -0.29600
H1383       H  0.68344864  0.10422688  0.20849892     0.14600
H1384       H  0.65823326  0.03337578  0.26296335     0.15200
C1385       C  0.94274267  0.10806286  0.46859993    -0.14400
C1386       C  0.91896656  0.10704946  0.44087360    -0.29600
H1387       H  0.94997721  0.12512421  0.50053823     0.14600
H1388       H  0.91352511  0.09129341  0.40820514     0.15200
C1389       C  0.94926753  0.34176074  0.49281263    -0.14400
C1390       C  0.91196469  0.30843196  0.48013411    -0.29600
H1391       H  0.97014549  0.33815891  0.50412125     0.14600
H1392       H  0.89323508  0.31291479  0.46460500     0.15200
C1393       C  0.70403235  0.10172395  0.48937347    -0.14400
C1394       C  0.66983836  0.06326385  0.49408364    -0.29600
H1395       H  0.69288735  0.11145170  0.95477351     0.14600
H1396       H  0.67195511  0.04007567  0.50053363     0.15200
C1397       C  0.84021922  0.16171635  0.36976599    -0.11200
C1398       C  0.83662974  0.16054917  0.32687955    -0.12800
C1399       C  0.83456508  0.15306424  0.11992463    -0.11200
C1400       C  0.83693008  0.15428786  0.07651326    -0.12800
C1401       C  0.84783486  0.16237370  0.52057308     0.32000
C1402       C  0.84315465  0.15972450  0.92468497     0.32100
C1403       C  0.86831477  0.14808722  0.48807431    -0.04100
C1404       C  0.80526297  0.13618509  0.50034513    -0.04900
C1405       C  0.86804708  0.20405944  0.49905654    -0.04800
C1406       C  0.85873197  0.13965214  0.94415860    -0.04200
C1407       C  0.80128877  0.13703460  0.95092844    -0.04900
C1408       C  0.86749935  0.20069425  0.95355036    -0.04800
C1409       C  0.87723861  0.12394551  0.92539981    -0.30200
N1410       N  0.88810695  0.11356981  0.95860752     0.16300
C1411       C  0.88983853  0.13445451  0.49315000    -0.30200
H1412       H  0.89629644  0.12991419  0.52478369     0.18200
C1413       C  0.76337724  0.12158331  0.93951735    -0.29200
N1414       N  0.74304518  0.11137120  0.48470084     0.15000
C1415       C  0.76704448  0.12108972  0.51856863    -0.29200
C1416       C  0.88788703  0.24087972  0.94515984    -0.29500
N1417       N  0.89798889  0.26729221  0.47859779     0.15500
H1418       H  0.89162392  0.25235856  0.91273821     0.18200
C1419       C  0.88830500  0.24429317  0.51417789    -0.29500
H1420       H  0.89388383  0.25558432  0.54880927     0.18200
H1421       H  0.75850215  0.12084406  0.55398350     0.18200
H1422       H  0.88330467  0.12111588  0.88979705     0.18200
H1423       H  0.75510670  0.12112075  0.90635649     0.18200
C1424       C  0.84302943  0.15620012  0.77093273     0.32000
C1425       C  0.84547373  0.15467054  0.67267413     0.32100
C1426       C  0.85127848  0.12896164  0.74306726    -0.04100
C1427       C  0.80403967  0.14100705  0.74788815    -0.04900
C1428       C  0.87490635  0.19654183  0.74626449    -0.04800
C1429       C  0.85242509  0.12818668  0.69480876    -0.04200
C1430       C  0.80596678  0.14088504  0.69959664    -0.04900
C1431       C  0.87593046  0.19501980  0.69811935    -0.04800
C1432       C  0.86225419  0.10394735  0.67904919    -0.30200
N1433       N  0.86715112  0.09019368  0.71457605     0.16300
C1434       C  0.86041725  0.10500135  0.75353906    -0.30200
H1435       H  0.86418255  0.10070468  0.78697645     0.18200
C1436       C  0.76708531  0.11629103  0.68663340    -0.29200
N1437       N  0.74117133  0.10201917  0.72366826     0.15000
C1438       C  0.76312084  0.11610470  0.76087947    -0.29200
C1439       C  0.89880007  0.23359880  0.68466430    -0.29500
N1440       N  0.91090413  0.25886957  0.72156294     0.15500
H1441       H  0.90337820  0.24230972  0.65038626     0.18200
C1442       C  0.89688817  0.23705409  0.75912734    -0.29500
H1443       H  0.89915999  0.24932369  0.79316734     0.18200
H1444       H  0.75017009  0.10709552  0.79476430     0.18200
H1445       H  0.86750136  0.09827735  0.64407771     0.18200
H1446       H  0.75878033  0.10719646  0.65211727     0.18200
O1447       O  0.57482050  0.48344656  0.85969240    -0.73200
O1448       O  0.56361341  0.45900297  0.92821444    -0.52200
C1449       C  0.57754871  0.46389902  0.88731485     0.80500
O1450       O  0.57423470  0.14399314  0.96511821    -0.57800
O1451       O  0.52833214  0.12606075  0.91453304    -0.50900
C1452       C  0.55935851  0.15227168  0.93752306     0.72500
O1453       O  0.62266118  0.08156751  0.99146256    -0.72400
O1454       O  0.59420047  0.01593811  0.99977574    -0.53000
C1455       C  0.62513294  0.05390320  0.99830825     0.78500
O1456       O  0.52061181  0.55712369  0.85020779    -0.57600
O1457       O  0.92278130  0.96181862  0.84632926    -0.50700
C1458       C  0.91313405  0.92731085  0.85043791     0.75100
Zr1459     Zr  0.55267705  0.52612435  0.86829612     2.54700
O1460       O  0.62469834  0.08886676  0.89248025    -0.78100
O1461       O  0.01846695  0.43053125  0.79505767    -0.91500
Zr1462     Zr  0.56892441  0.08647297  0.98674143     2.64700
O1463       O  0.63932267  0.14828552  0.97828863    -0.96500
O1464       O  0.58803878  0.12034382  0.06093482    -0.78500
O1465       O  0.57429821  0.04022296  0.94283355    -0.81900
O1466       O  0.55251072  0.07913557  0.91145081    -2.16600
O1467       O  0.87065207  0.42100270  0.93351592    -0.65300
O1468       O  0.89219362  0.47798445  0.90061915    -0.49900
C1469       C  0.86413597  0.44260250  0.91590138     0.73500
O1470       O  0.04309391  0.02613743  0.51504458    -0.58200
O1471       O  0.47938954  0.43211008  0.52810846    -0.50200
C1472       C  0.04302551  0.49486598  0.53132899     0.75300
O1473       O  0.96991217  0.07758981  0.99658518    -0.69600
O1474       O  0.93863948  0.05365801  0.93129517    -0.48300
C1475       C  0.94762203  0.07493700  0.96803453     0.76700
O1476       O  0.93149688  0.38139303  0.99566000    -0.64900
O1477       O  0.99814312  0.40914472  0.99241824    -0.52100
C1478       C  0.95974394  0.37884740  0.99849086     0.75000
Zr1479     Zr  0.92751491  0.42691276  0.95764332     2.77500
O1480       O  0.87851831  0.40477992  0.02227023    -0.95700
O1481       O  0.89389087  0.36644639  0.90734408    -0.76500
Zr1482     Zr  0.99389929  0.03884167  0.00679381     2.70900
O1483       O  0.94014391  0.52050097  0.54127497    -0.77700
O1484       O  0.54529659  0.09282093  0.55092708    -0.96800
Zr1485     Zr  0.52255860  0.47248861  0.97168507     2.21500
Zr1486     Zr  0.96247648  0.01795828  0.89873234     2.11100
O1487       O  0.94025419  0.49083393  0.96925199    -2.45500
O1488       O  0.99040992  0.48886466  0.96451186    -0.77500
O1489       O  0.98512368  0.48401702  0.92162309    -0.69700
O1490       O  0.52084071  0.02196498  0.02357315    -2.30700
O1491       O  0.98428209  0.43038792  0.92574032    -2.26900
O1492       O  0.50310977  0.06917931  0.98476261    -0.71500
H1493       H  0.57424341  0.10578921  0.90008146     0.80500
H1494       H  0.56234219  0.04565966  0.52650512     0.81600
H1495       H  0.91671048  0.48814948  0.98097621     0.83800
H1496       H  0.97805812  0.40440023  0.91953200     0.81400
H1497       H  0.58891711  0.14398517  0.05957683     0.44500
H1498       H  0.56933051  0.10210132  0.53092236     0.43400
H1499       H  0.93870618  0.54283059  0.54689842     0.43100
H1500       H  0.87088128  0.42247466  0.02342505     0.41000
H1501       H  0.87431350  0.34346197  0.92704149     0.44200
H1502       H  0.00187406  0.40181570  0.80305092     0.39000
H1503       H  0.64055938  0.07901701  0.88745366     0.45100
H1504       H  0.64373131  0.15473582  0.94625817     0.41500
H1505       H  0.85379539  0.37775320  0.01274509     0.46400
H1506       H  0.61817041  0.58074593  0.80437413     0.45100
H1507       H  0.64080426  0.17038398  0.99500776     0.45300
H1508       H  0.06050241  0.13219150  0.51195647     0.45600
O1509       O  0.52685569  0.41839647  0.61035362    -0.73200
O1510       O  0.55830310  0.43887096  0.67515941    -0.52200
C1511       C  0.54924967  0.41974123  0.63711283     0.80500
O1512       O  0.57111593  0.12024083  0.63677688    -0.57800
O1513       O  0.50522165  0.09304773  0.63185888    -0.50900
C1514       C  0.54381249  0.12389216  0.63182732     0.72500
O1515       O  0.62728342  0.06302139  0.65688970    -0.72400
O1516       O  0.61000828  0.02232658  0.71419335    -0.53000
C1517       C  0.63583183  0.04972624  0.68606736     0.78500
O1518       O  0.42209110  0.41896480  0.62087122    -0.57600
O1519       O  0.99623808  0.06308953  0.59282690    -0.50700
C1520       C  0.00255058  0.03819006  0.58399943     0.75100
Zr1521     Zr  0.49282284  0.44835261  0.61178874     2.54700
O1522       O  0.54662243  0.98442145  0.55454678    -0.78100
O1523       O  0.04847396  0.44786368  0.58371996    -0.91500
Zr1524     Zr  0.57268253  0.06428695  0.64518374     2.64700
O1525       O  0.61305601  0.09135035  0.57516780    -0.96500
O1526       O  0.63134057  0.12583696  0.68050527    -0.78500
O1527       O  0.55577428  0.99827816  0.64299492    -0.81900
O1528       O  0.50989609  0.01615890  0.60587881    -2.16600
O1529       O  0.88323016  0.43447099  0.61748131    -0.65300
O1530       O  0.91161441  0.50109513  0.62983567    -0.49900
C1531       C  0.88180281  0.46379417  0.61801481     0.73500
O1532       O  0.90844264  0.91324860  0.75980296    -0.58200
O1533       O  0.53139459  0.46757289  0.79444680    -0.50200
C1534       C  0.91882545  0.39029781  0.76469439     0.75300
O1535       O  0.90265583  0.01072463  0.75626042    -0.69600
O1536       O  0.94336881  0.06091122  0.70846058    -0.48300
C1537       C  0.91270603  0.04123041  0.73615029     0.76700
O1538       O  0.91654360  0.36372963  0.67215164    -0.64900
O1539       O  0.97303677  0.38345191  0.70421334    -0.52100
C1540       C  0.93826993  0.35640197  0.68755949     0.75000
Zr1541     Zr  0.92443469  0.42315255  0.65351627     2.77500
O1542       O  0.86248444  0.37818443  0.70111165    -0.95700
O1543       O  0.89799174  0.37946554  0.58438637    -0.76500
Zr1544     Zr  0.93890417  0.98415246  0.76287484     2.70100
O1545       O  0.87196889  0.43738013  0.78713516    -0.77700
O1546       O  0.57215389  0.11236175  0.77931060    -0.96800
Zr1547     Zr  0.53594935  0.47246926  0.71661570     2.21500
Zr1548     Zr  0.97397933  0.03607417  0.66399365     2.11100
O1549       O  0.92133651  0.47363974  0.69090638    -2.45500
O1550       O  0.97573241  0.47576336  0.69884610    -0.77500
O1551       O  0.98739098  0.48764274  0.65913849    -0.69700
O1552       O  0.55983308  0.04493018  0.72051500    -2.30700
O1553       O  0.98989478  0.43848547  0.64612593    -2.26900
O1554       O  0.52464177  0.06933443  0.68320690    -0.71500
H1555       H  0.51099029  0.02189743  0.57565397     0.80500
H1556       H  0.58473975  0.06353945  0.73559588     0.81600
H1557       H  0.89467792  0.46620947  0.69587433     0.83800
H1558       H  0.98708161  0.41572815  0.63206308     0.81400
H1559       H  0.64496544  0.14670349  0.65769842     0.44500
H1560       H  0.58534412  0.10602376  0.79752086     0.43400
H1561       H  0.85724922  0.44483320  0.77406607     0.43100
H1562       H  0.84909791  0.39064388  0.70382416     0.41000
H1563       H  0.88127749  0.35133739  0.59434627     0.44200
H1564       H  0.07624141  0.45810204  0.57319990     0.39000
H1565       H  0.56428073  0.97770914  0.55975448     0.45100
H1566       H  0.63436555  0.12066787  0.58174219     0.41500
H1567       H  0.84458530  0.35322456  0.68212395     0.46400
H1568       H  0.47151592  0.37403342  0.56288027     0.45100
H1569       H  0.62774704  0.08025338  0.57131868     0.45300
H1570       H  0.92136572  0.02013176  0.83637673     0.45600
C1571       C  0.66066320  0.35445871  0.83703639     0.32000
C1572       C  0.65997855  0.35831056  0.93511356     0.32100
C1573       C  0.64390774  0.37508777  0.86463211    -0.04100
C1574       C  0.63576074  0.31387360  0.86246757    -0.04900
C1575       C  0.70201869  0.37826833  0.85990555    -0.04800
C1576       C  0.64370051  0.37656833  0.91287427    -0.04200
C1577       C  0.63582585  0.31685746  0.91037941    -0.04900
C1578       C  0.70100839  0.37962439  0.90802075    -0.04800
C1579       C  0.62914710  0.39650376  0.92929450    -0.30200
N1580       N  0.62042674  0.40766893  0.89463190     0.16300
C1581       C  0.62922442  0.39493256  0.85507251    -0.30200
H1582       H  0.62514642  0.39949878  0.82194855     0.18200
C1583       C  0.61409383  0.27910493  0.92569179    -0.29200
N1584       N  0.60114047  0.25226657  0.89013751     0.15000
C1585       C  0.61356676  0.27272808  0.85144678    -0.29200
C1586       C  0.73990002  0.40130876  0.92021316    -0.29500
N1587       N  0.76491757  0.41319757  0.88253025     0.15500
H1588       H  0.74935816  0.40774442  0.95432172     0.18200
C1589       C  0.74256486  0.39997686  0.84572275    -0.29500
H1590       H  0.75476935  0.40472167  0.81123645     0.18200
H1591       H  0.60797694  0.25888314  0.81784135     0.18200
H1592       H  0.62523840  0.40267607  0.96454115     0.18200
H1593       H  0.60849546  0.27203589  0.96075084     0.18200
C1594       C  0.66009853  0.34336239  0.58539173     0.32000
C1595       C  0.66197476  0.34635608  0.68298404     0.32100
C1596       C  0.63887506  0.35781885  0.61496742    -0.04100
C1597       C  0.63993479  0.30261316  0.60902565    -0.04900
C1598       C  0.70246803  0.37108284  0.60672456    -0.04800
C1599       C  0.63992771  0.35915329  0.66266700    -0.04200
C1600       C  0.64122485  0.30451781  0.65702445    -0.04900
C1601       C  0.70327364  0.37239968  0.65465982    -0.04800
C1602       C  0.61799502  0.37107060  0.68078299    -0.30200
N1603       N  0.60373792  0.37714203  0.64705917     0.16300
C1604       C  0.61611746  0.36918800  0.60681333    -0.30200
H1605       H  0.60943082  0.37169832  0.57412343     0.18200
C1606       C  0.62308142  0.26586845  0.66941980    -0.29200
N1607       N  0.60989401  0.24025088  0.63239067     0.15000
C1608       C  0.62022435  0.26218244  0.59552483    -0.29200
C1609       C  0.74310316  0.39194073  0.66365955    -0.29500
N1610       N  0.76663905  0.40367351  0.62456537     0.15500
H1611       H  0.75362384  0.39441051  0.69616679     0.18200
C1612       C  0.74213507  0.39047150  0.58984992    -0.29500
H1613       H  0.75170751  0.39138400  0.55470321     0.18200
H1614       H  0.61540432  0.25002132  0.56118533     0.18200
H1615       H  0.61282653  0.37526701  0.71629768     0.18200
H1616       H  0.62072584  0.25715995  0.70310506     0.18200
C1617       C  0.66197994  0.34896005  0.73808027    -0.11200
C1618       C  0.66141447  0.35154368  0.78188758    -0.12800
C1619       C  0.65951066  0.35760071  0.98976126    -0.11200
C1620       C  0.65925002  0.34366636  0.53099560    -0.12800
C1621       C  0.55787291  0.16564368  0.62537395    -0.14400
C1622       C  0.59650866  0.19943186  0.63257503    -0.29600
H1623       H  0.53595135  0.16885844  0.61678032     0.14600
H1624       H  0.61756317  0.19609849  0.64400392     0.15200
C1625       C  0.80661909  0.41468481  0.62068040    -0.14400
C1626       C  0.84132801  0.45236739  0.61087668    -0.29600
H1627       H  0.80887294  0.39263559  0.63146086     0.14600
H1628       H  0.83957447  0.47574726  0.60417063     0.15200
C1629       C  0.58198017  0.39266378  0.65579718    -0.14400
C1630       C  0.56624966  0.39859108  0.62405296    -0.29600
H1631       H  0.57933565  0.40113546  0.69064919     0.14600
H1632       H  0.56651795  0.38884115  0.58922217     0.15200
C1633       C  0.58064885  0.19526130  0.93139217    -0.14400
C1634       C  0.57923216  0.20949440  0.89390776    -0.29600
H1635       H  0.60043652  0.21605418  0.95773297     0.14600
H1636       H  0.56236499  0.18884574  0.86576511     0.15200
C1637       C  0.80768180  0.43360295  0.88242409    -0.14400
C1638       C  0.82137197  0.42413457  0.91266580    -0.29600
H1639       H  0.82830985  0.45514686  0.85680773     0.14600
H1640       H  0.79957736  0.39975121  0.93510427     0.15200
C1641       C  0.59704205  0.44479822  0.87223179    -0.14400
C1642       C  0.60291493  0.42791222  0.90308617    -0.29600
H1643       H  0.60618267  0.44451987  0.83704656     0.14600
H1644       H  0.59434029  0.43001566  0.93809829     0.15200
C1645       C  0.88411593  0.34953316  0.77615138    -0.16500
C1646       C  0.85441026  0.33520753  0.80116018     0.07600
C1647       C  0.84772721  0.85598994  0.83243203     0.09500
C1648       C  0.87135788  0.89063002  0.84646990    -0.17300
C1649       C  0.00610510  0.45951020  0.54905511    -0.16500
C1650       C  0.97257051  0.44267769  0.56413129     0.07600
C1651       C  0.95613849  0.96243214  0.57882882     0.09500
C1652       C  0.96909068  0.99650633  0.58487781    -0.17300
C1653       C  0.88440310  0.07000117  0.70953395    -0.14400
C1654       C  0.88772565  0.05425662  0.74376627    -0.29600
H1655       H  0.89720269  0.06931874  0.67634225     0.14600
H1656       H  0.87285125  0.05141374  0.77661876     0.15200
C1657       C  0.92953260  0.30087573  0.72068678    -0.14400
C1658       C  0.92083076  0.31402411  0.68882296    -0.29600
H1659       H  0.94896594  0.32152535  0.74747322     0.14600
H1660       H  0.89808416  0.29265193  0.66496440     0.15200
C1661       C  0.69752345  0.07562241  0.72370283    -0.14400
C1662       C  0.67885871  0.06879810  0.68627320    -0.29600
H1663       H  0.67981756  0.06398565  0.75531951     0.14600
H1664       H  0.69641749  0.08257829  0.65525154     0.15200
C1665       C  0.92991951  0.09601403  0.97894816    -0.14400
C1666       C  0.90758013  0.09535607  0.94943946    -0.29600
H1667       H  0.93449413  0.11131807  0.01171707     0.14600
H1668       H  0.90483609  0.08138491  0.91611031     0.15200
C1669       C  0.94657304  0.33743825  0.00483122    -0.14400
C1670       C  0.91102889  0.30391788  0.98861903    -0.29600
H1671       H  0.96776729  0.33461263  0.01694741     0.14600
H1672       H  0.89216312  0.30793961  0.97260776     0.15200
C1673       C  0.69806487  0.09723191  0.97789616    -0.14400
C1674       C  0.66618461  0.06667611  0.00230038    -0.29600
H1675       H  0.70239808  0.12482780  0.48095374     0.14600
H1676       H  0.66987370  0.04928545  0.02199477     0.15200
C1677       C  0.84348520  0.15947328  0.86971439    -0.11200
C1678       C  0.84294611  0.15790679  0.82603026    -0.12800
C1679       C  0.84693087  0.15666574  0.61793280    -0.11200
C1680       C  0.84799018  0.15982477  0.57485047    -0.12800
C1681       C  0.84017902  0.65514970  0.01890125     0.32000
C1682       C  0.84801549  0.66362696  0.42145139     0.32100
C1683       C  0.86022101  0.63915282  0.98885292    -0.04100
C1684       C  0.79894126  0.63113773  0.99563035    -0.04900
C1685       C  0.86380779  0.69734382  0.99773735    -0.04800
C1686       C  0.86748625  0.64634237  0.43886662    -0.04200
C1687       C  0.80736231  0.63912111  0.44974073    -0.04900
C1688       C  0.87144500  0.70488626  0.44969315    -0.04800
C1689       C  0.88693718  0.63172462  0.41894190    -0.30200
N1690       N  0.90020126  0.62291349  0.45131644     0.16300
C1691       C  0.88062651  0.62473996  0.99618498    -0.30200
H1692       H  0.88565942  0.61992139  0.02859438     0.18200
C1693       C  0.76856299  0.62202642  0.44027941    -0.29200
N1694       N  0.73709014  0.60416863  0.97455390     0.15000
C1695       C  0.75907815  0.61321418  0.01052972    -0.29200
C1696       C  0.88966803  0.74445290  0.44054818    -0.29500
N1697       N  0.89575183  0.76118810  0.97923007     0.15500
H1698       H  0.89118638  0.75474536  0.40819178     0.18200
C1699       C  0.88351960  0.73696419  0.01426763    -0.29500
H1700       H  0.88626339  0.74687607  0.04937094     0.18200
H1701       H  0.74788689  0.61042757  0.04528309     0.18200
H1702       H  0.89159417  0.62819285  0.38311959     0.18200
H1703       H  0.75875979  0.62104830  0.40789390     0.18200
C1704       C  0.83617733  0.65788989  0.26980129     0.32000
C1705       C  0.83572405  0.65344891  0.17179786     0.32100
C1706       C  0.85372502  0.63908892  0.24196046    -0.04100
C1707       C  0.79383863  0.63221705  0.24767431    -0.04900
C1708       C  0.85908497  0.69814861  0.24443506    -0.04800
C1709       C  0.85392703  0.63719439  0.19393626    -0.04200
C1710       C  0.79426199  0.63050011  0.19936424    -0.04900
C1711       C  0.85834667  0.69526115  0.19649737    -0.04800
C1712       C  0.86901056  0.61745185  0.17849375    -0.30200
N1713       N  0.87673405  0.60660650  0.21436717     0.16300
C1714       C  0.86771557  0.61959947  0.25299071    -0.30200
H1715       H  0.87144979  0.61550823  0.28657951     0.18200
C1716       C  0.75524378  0.61099016  0.18805530    -0.29200
N1717       N  0.73058027  0.59990985  0.22600335     0.15000
C1718       C  0.75352590  0.61282919  0.26240264    -0.29200
C1719       C  0.87742357  0.73314665  0.18204886    -0.29500
N1720       N  0.88987143  0.75943930  0.21823518     0.15500
H1721       H  0.88173279  0.74086050  0.14738671     0.18200
C1722       C  0.87926267  0.73876290  0.25625198    -0.29500
H1723       H  0.88474822  0.75210221  0.29009816     0.18200
H1724       H  0.74238408  0.61115516  0.29700866     0.18200
H1725       H  0.87348636  0.61079263  0.14364814     0.18200
H1726       H  0.74584095  0.60740474  0.15447003     0.18200
O1727       O  0.55968750  0.95932506  0.36657219    -0.73200
O1728       O  0.55762246  0.94607819  0.43798774    -0.52200
C1729       C  0.56714688  0.94551476  0.39647201     0.80500
O1730       O  0.58056921  0.63065109  0.42381062    -0.57800
O1731       O  0.52534689  0.60859723  0.38705214    -0.50900
C1732       C  0.56029629  0.63683814  0.40304480     0.72500
O1733       O  0.62978745  0.57221745  0.46089981    -0.72400
O1734       O  0.59916523  0.50942502  0.48531456    -0.53000
C1735       C  0.63073544  0.54628258  0.47768448     0.78500
O1736       O  0.45140883  0.94909123  0.35191932    -0.57600
O1737       O  0.92828348  0.46752430  0.33951488    -0.50700
C1738       C  0.91795025  0.43322307  0.34735635     0.75100
Zr1739     Zr  0.52384245  0.98707421  0.35859177     2.54700
O1740       O  0.58295026  0.53901150  0.31822528    -0.78100
O1741       O  0.00992666  0.93215151  0.27777280    -0.91500
Zr1742     Zr  0.57973597  0.57483008  0.43432293     2.64700
O1743       O  0.62897608  0.60840466  0.37093477    -0.96500
O1744       O  0.63520690  0.63317750  0.47698131    -0.78500
O1745       O  0.56791445  0.51291109  0.40993886    -0.81900
O1746       O  0.53689166  0.54620400  0.37112516    -2.16600
O1747       O  0.87253336  0.92650942  0.43056455    -0.65300
O1748       O  0.89213768  0.98026283  0.39229054    -0.49900
C1749       C  0.86492063  0.94657267  0.41162446     0.73500
O1750       O  0.03022159  0.51510171  0.03267382    -0.58200
O1751       O  0.46495219  0.92202155  0.01331058    -0.50200
C1752       C  0.00728825  0.97551670  0.04338086     0.75300
O1753       O  0.98418565  0.58806083  0.48704698    -0.69600
O1754       O  0.95104500  0.56358166  0.42254285    -0.48300
C1755       C  0.96094853  0.58497945  0.45933653     0.76700
O1756       O  0.93562616  0.88663526  0.48183914    -0.64900
O1757       O  0.00265892  0.91545992  0.47833820    -0.52100
C1758       C  0.96427396  0.88463318  0.48452554     0.75000
Zr1759     Zr  0.93139268  0.93297645  0.44656968     2.77500
O1760       O  0.89155741  0.91260116  0.51728882    -0.95700
O1761       O  0.89651445  0.86701331  0.40652048    -0.76500
Zr1762     Zr  0.00568487  0.54729129  0.49947318     2.70900
O1763       O  0.94008096  0.04005677  0.04811766    -0.77700
O1764       O  0.49069445  0.55498098  0.07405661    -0.96800
Zr1765     Zr  0.52628267  0.97267509  0.47232529     2.21500
Zr1766     Zr  0.97330044  0.52776582  0.38514368     2.11100
O1767       O  0.94457429  0.99702848  0.45454260    -2.45500
O1768       O  0.98437204  0.98183914  0.48970733    -0.77500
O1769       O  0.98755146  0.98908080  0.40637019    -0.69700
O1770       O  0.54568023  0.53228552  0.49864007    -2.30700
O1771       O  0.98789675  0.93820806  0.41233516    -2.26900
O1772       O  0.52245911  0.57179276  0.46097719    -0.71500
H1773       H  0.54954514  0.56532030  0.34765176     0.80500
H1774       H  0.52301136  0.51909065  0.05270083     0.81600
H1775       H  0.92144974  0.99482873  0.46682086     0.83800
H1776       H  0.98003436  0.91147746  0.40753658     0.81400
H1777       H  0.62854851  0.65158604  0.48420727     0.44500
H1778       H  0.51430503  0.57967224  0.05945126     0.43400
H1779       H  0.91290292  0.01594536  0.03894794     0.43100
H1780       H  0.88248202  0.92912533  0.52131850     0.41000
H1781       H  0.87210281  0.84800010  0.42610097     0.44200
H1782       H  0.99023114  0.90373459  0.28709118     0.39000
H1783       H  0.60470685  0.53961682  0.32842586     0.45100
H1784       H  0.62268346  0.62412686  0.35781901     0.41500
H1785       H  0.86658481  0.88474075  0.51063798     0.46400
H1786       H  0.54520605  0.94584923  0.29225417     0.45100
H1787       H  0.65525589  0.62921538  0.38475881     0.45300
H1788       H  0.04667457  0.63059472  0.02393230     0.45600
O1789       O  0.55571142  0.95885931  0.12371899    -0.73200
O1790       O  0.54569441  0.93839110  0.19376066    -0.52200
C1791       C  0.55925814  0.94150518  0.15308077     0.80500
O1792       O  0.56821829  0.62626237  0.18422213    -0.57800
O1793       O  0.51633914  0.60709959  0.14292672    -0.50900
C1794       C  0.55083274  0.63439746  0.16077481     0.72500
O1795       O  0.61327719  0.56595240  0.22296588    -0.72400
O1796       O  0.58326019  0.50179656  0.24149705    -0.53000
C1797       C  0.61505964  0.53904798  0.23492407     0.78500
O1798       O  0.45447995  0.94937426  0.09070125    -0.57600
O1799       O  0.01555546  0.59219145  0.10326874    -0.50700
C1800       C  0.01910272  0.56648348  0.08672190     0.75100
Zr1801     Zr  0.52340737  0.98950919  0.11409221     2.54700
O1802       O  0.58563341  0.54915895  0.07829118    -0.78100
O1803       O  0.09525677  0.04585336  0.06033821    -0.91500
Zr1804     Zr  0.55983143  0.56879542  0.20948161     2.64700
O1805       O  0.62563936  0.62727388  0.17944120    -0.96500
O1806       O  0.58033941  0.60808152  0.28040910    -0.78500
O1807       O  0.55759063  0.51347849  0.17722111    -0.81900
O1808       O  0.53185914  0.54872630  0.13614869    -2.16600
O1809       O  0.87433102  0.94006327  0.10785004    -0.65300
O1810       O  0.89935741  0.00540378  0.12702242    -0.49900
C1811       C  0.87189679  0.96881864  0.11047557     0.73500
O1812       O  0.90156013  0.41673568  0.25631740    -0.58200
O1813       O  0.45345711  0.91567856  0.27755227    -0.50200
C1814       C  0.90418301  0.89019642  0.25709618     0.75300
O1815       O  0.89867872  0.51472692  0.25055561    -0.69600
O1816       O  0.94740568  0.57180092  0.21570441    -0.48300
C1817       C  0.91285035  0.54898691  0.23618178     0.76700
O1818       O  0.90591207  0.86931716  0.16407184    -0.64900
O1819       O  0.96103296  0.88683741  0.19647180    -0.52100
C1820       C  0.92630873  0.86052643  0.17965495     0.75000
Zr1821     Zr  0.91672513  0.92957619  0.14273453     2.77500
O1822       O  0.85365442  0.88121138  0.18640385    -0.95700
O1823       O  0.90055355  0.87887511  0.08252288    -0.76500
Zr1824     Zr  0.93498530  0.48805775  0.25783413     2.70100
O1825       O  0.85880848  0.92878106  0.28981713    -0.77700
O1826       O  0.48834805  0.55625764  0.32183503    -0.96800
Zr1827     Zr  0.50963747  0.96101434  0.22708939     2.21500
Zr1828     Zr  0.97491617  0.54807900  0.16435088     2.11100
O1829       O  0.90774144  0.97478699  0.18546136    -2.45500
O1830       O  0.96258236  0.97880303  0.19470990    -0.77500
O1831       O  0.97865280  0.99562791  0.16010957    -0.69700
O1832       O  0.51568639  0.51497834  0.26297528    -2.30700
O1833       O  0.98572375  0.95127178  0.13632612    -2.26900
O1834       O  0.49695899  0.55793822  0.22302424    -0.71500
H1835       H  0.54860717  0.57054787  0.11614542     0.80500
H1836       H  0.52474760  0.52035022  0.29305507     0.81600
H1837       H  0.88023153  0.96528908  0.18877008     0.83800
H1838       H  0.98710856  0.93116031  0.12087095     0.81400
H1839       H  0.58406862  0.63274783  0.27470693     0.44500
H1840       H  0.50745735  0.58086413  0.30431612     0.43400
H1841       H  0.83982282  0.92800253  0.27239883     0.43100
H1842       H  0.83922694  0.89259102  0.18930911     0.41000
H1843       H  0.87145047  0.85574692  0.08830421     0.44200
H1844       H  0.11226863  0.03890954  0.06757756     0.39000
H1845       H  0.60770342  0.55452911  0.09466027     0.45100
H1846       H  0.64342352  0.64012123  0.20514018     0.41500
H1847       H  0.83721665  0.85706885  0.16586802     0.46400
H1848       H  0.55736103  0.96278561  0.04709085     0.45100
H1849       H  0.63640221  0.61590011  0.15907543     0.45300
H1850       H  0.91765873  0.52503907  0.33002289     0.45600
C1851       C  0.65541427  0.84583031  0.33736661     0.32000
C1852       C  0.65410424  0.84264126  0.43434019     0.32100
C1853       C  0.63780227  0.86364156  0.36856188    -0.04100
C1854       C  0.63064349  0.80355883  0.35825791    -0.04900
C1855       C  0.69670209  0.86845384  0.35979343    -0.04800
C1856       C  0.63726902  0.86190305  0.41625364    -0.04200
C1857       C  0.63035893  0.80241690  0.40586165    -0.04900
C1858       C  0.69554949  0.86655992  0.40743017    -0.04800
C1859       C  0.62196160  0.88037668  0.43601217    -0.30200
N1860       N  0.61318175  0.89331418  0.40342850     0.16300
C1861       C  0.62260648  0.88334064  0.36234102    -0.30200
H1862       H  0.61904110  0.89005169  0.33026879     0.18200
C1863       C  0.60640513  0.76255772  0.41601582    -0.29200
N1864       N  0.59226608  0.73919693  0.37739090     0.15000
C1865       C  0.60627520  0.76362431  0.34218375    -0.29200
C1866       C  0.73483114  0.89056528  0.41959252    -0.29500
N1867       N  0.76019531  0.90662863  0.38216862     0.15500
H1868       H  0.74409508  0.89637842  0.45367984     0.18200
C1869       C  0.73745233  0.89392763  0.34580238    -0.29500
H1870       H  0.74968447  0.90239033  0.31161646     0.18200
H1871       H  0.60017200  0.75314709  0.30736236     0.18200
H1872       H  0.61776625  0.88447778  0.47182265     0.18200
H1873       H  0.59995930  0.75128330  0.44932906     0.18200
C1874       C  0.65605958  0.85043118  0.08819882     0.32000
C1875       C  0.65617567  0.84771503  0.18513710     0.32100
C1876       C  0.63492621  0.86431565  0.12013401    -0.04100
C1877       C  0.63542788  0.80830130  0.10868094    -0.04900
C1878       C  0.69805132  0.87657598  0.11043559    -0.04800
C1879       C  0.63502562  0.86256564  0.16755269    -0.04200
C1880       C  0.63574071  0.80742971  0.15629922    -0.04900
C1881       C  0.69765276  0.87512293  0.15809530    -0.04800
C1882       C  0.61615126  0.87719011  0.18825871    -0.30200
N1883       N  0.60488063  0.88832757  0.15651390     0.16300
C1884       C  0.61600647  0.88065296  0.11497137    -0.30200
H1885       H  0.61102642  0.88663330  0.08330691     0.18200
C1886       C  0.61446089  0.76758581  0.16628658    -0.29200
N1887       N  0.60119793  0.74363593  0.12772934     0.15000
C1888       C  0.61372685  0.76816302  0.09269049    -0.29200
C1889       C  0.73727609  0.90235614  0.16989136    -0.29500
N1890       N  0.76205946  0.92004349  0.13247275     0.15500
H1891       H  0.74747051  0.90898482  0.20367766     0.18200
C1892       C  0.73868366  0.90463199  0.09610118    -0.29500
H1893       H  0.75016881  0.91371810  0.06190791     0.18200
H1894       H  0.60713189  0.75754480  0.05796555     0.18200
H1895       H  0.61159793  0.88031067  0.22420697     0.18200
H1896       H  0.60822342  0.75711008  0.19992549     0.18200
C1897       C  0.65608445  0.84703040  0.23959022    -0.11200
C1898       C  0.65589587  0.84680798  0.28295188    -0.12800
C1899       C  0.65372349  0.84034419  0.48843113    -0.11200
C1900       C  0.65584146  0.85260234  0.03384125    -0.12800
C1901       C  0.57245925  0.67875149  0.15909897    -0.14400
C1902       C  0.57677528  0.69951146  0.12443488    -0.29600
H1903       H  0.58924525  0.69599516  0.18863365     0.14600
H1904       H  0.56305730  0.68321478  0.09304392     0.15200
C1905       C  0.80582954  0.94961152  0.13417138    -0.14400
C1906       C  0.83200374  0.95588448  0.09955632    -0.29600
H1907       H  0.81798917  0.96215609  0.16721307     0.14600
H1908       H  0.82022781  0.94016440  0.06736442     0.15200
C1909       C  0.58473977  0.90554133  0.16810406    -0.14400
C1910       C  0.57967015  0.92375754  0.13874298    -0.29600
H1911       H  0.57432006  0.90470370  0.20306857     0.14600
H1912       H  0.59046314  0.92568008  0.10385185     0.15200
C1913       C  0.57955369  0.67989509  0.40069046    -0.14400
C1914       C  0.56986448  0.69596117  0.37442432    -0.29600
H1915       H  0.60506573  0.70046914  0.42188016     0.14600
H1916       H  0.54698199  0.67717466  0.34985416     0.15200
C1917       C  0.80388446  0.93106815  0.38089466    -0.14400
C1918       C  0.82172699  0.92817982  0.41293029    -0.29600
H1919       H  0.82195915  0.94913369  0.35193285     0.14600
H1920       H  0.80289378  0.90731113  0.43960638     0.15200
C1921       C  0.58720862  0.92737097  0.38258485    -0.14400
C1922       C  0.59618842  0.91370883  0.41373202    -0.29600
H1923       H  0.59351073  0.92435525  0.34705756     0.14600
H1924       H  0.58983860  0.91757301  0.44910767     0.15200
C1925       C  0.87156509  0.84900258  0.26897836    -0.16500
C1926       C  0.84622608  0.83429313  0.29950878     0.07600
C1927       C  0.84947518  0.36266987  0.33644413     0.09500
C1928       C  0.87549456  0.39742168  0.34852404    -0.17300
C1929       C  0.96514021  0.94843332  0.04462319    -0.16500
C1930       C  0.94130007  0.95333471  0.05630033     0.07600
C1931       C  0.95695369  0.49246495  0.07750904     0.09500
C1932       C  0.98357613  0.52660463  0.08708792    -0.17300
C1933       C  0.89559078  0.58817932  0.21071241    -0.14400
C1934       C  0.88903023  0.56329231  0.24143794    -0.29600
H1935       H  0.91575841  0.59460600  0.18118109     0.14600
H1936       H  0.86634658  0.55342190  0.26903784     0.15200
C1937       C  0.91078545  0.80222319  0.21630822    -0.14400
C1938       C  0.90653946  0.81722974  0.18189097    -0.29600
H1939       H  0.92902836  0.82237573  0.24404845     0.14600
H1940       H  0.88509147  0.79674267  0.15657611     0.15200
C1941       C  0.69030904  0.58774559  0.22589782    -0.14400
C1942       C  0.65629447  0.55224615  0.24161310    -0.29600
H1943       H  0.68718754  0.60619952  0.20738938     0.14600
H1944       H  0.65878684  0.53202391  0.25712371     0.15200
C1945       C  0.94341170  0.60631005  0.47061875    -0.14400
C1946       C  0.92048690  0.60545377  0.44148415    -0.29600
H1947       H  0.94838931  0.62173921  0.50336261     0.14600
H1948       H  0.91730816  0.59128403  0.40819260     0.15200
C1949       C  0.95179112  0.84344679  0.49189300    -0.14400
C1950       C  0.91398535  0.80855749  0.48268489    -0.29600
H1951       H  0.97480807  0.84152819  0.49969810     0.14600
H1952       H  0.89230818  0.81104796  0.47132539     0.15200
C1953       C  0.70504047  0.59841849  0.48180187    -0.14400
C1954       C  0.67126012  0.55974418  0.48724634    -0.29600
H1955       H  0.69318066  0.60956031  0.95458748     0.14600
H1956       H  0.67396105  0.53728859  0.49520455     0.15200
C1957       C  0.84419923  0.66270614  0.36723431    -0.11200
C1958       C  0.83971777  0.66070099  0.32436210    -0.12800
C1959       C  0.83678622  0.65291840  0.11699319    -0.11200
C1960       C  0.83838198  0.65382523  0.07351281    -0.12800
C1961       C  0.84961815  0.66185768  0.51840414     0.32000
C1962       C  0.84251898  0.65733187  0.92156483     0.32100
C1963       C  0.86848384  0.64564460  0.48643512    -0.04100
C1964       C  0.80763348  0.63799835  0.49722355    -0.04900
C1965       C  0.87254897  0.70431253  0.49735326    -0.04800
C1966       C  0.86089068  0.64008799  0.94109650    -0.04200
C1967       C  0.80043520  0.63248270  0.94781058    -0.04900
C1968       C  0.86469356  0.69819530  0.94989144    -0.04800
C1969       C  0.88069709  0.62572872  0.92236946    -0.30200
N1970       N  0.89289543  0.61681251  0.95566162     0.16300
C1971       C  0.88896775  0.63106345  0.49238571    -0.30200
H1972       H  0.89493735  0.62650963  0.52434887     0.18200
C1973       C  0.76208111  0.61620644  0.93673232    -0.29200
N1974       N  0.74491229  0.60987681  0.47892178     0.15000
C1975       C  0.76818182  0.61986137  0.51386340    -0.29200
C1976       C  0.88399529  0.73779850  0.94040931    -0.29500
N1977       N  0.90272797  0.76830049  0.47911223     0.15500
H1978       H  0.88756876  0.74858973  0.90756853     0.18200
C1979       C  0.89203621  0.74411319  0.51383046    -0.29500
H1980       H  0.89547696  0.75403938  0.54895232     0.18200
H1981       H  0.75793737  0.61706495  0.54897875     0.18200
H1982       H  0.88621138  0.62229395  0.88674697     0.18200
H1983       H  0.75359950  0.61576245  0.90371112     0.18200
C1984       C  0.84521598  0.65638556  0.76849396     0.32000
C1985       C  0.84672634  0.65439504  0.67044701     0.32100
C1986       C  0.85746168  0.63252267  0.74053517    -0.04100
C1987       C  0.80507357  0.63727097  0.74588660    -0.04900
C1988       C  0.87390048  0.69717215  0.74398667    -0.04800
C1989       C  0.85832799  0.63155906  0.69231363    -0.04200
C1990       C  0.80618429  0.63661492  0.69781633    -0.04900
C1991       C  0.87431417  0.69553066  0.69594953    -0.04800
C1992       C  0.87055535  0.60925039  0.67661950    -0.30200
N1993       N  0.87691235  0.59679326  0.71225051     0.16300
C1994       C  0.86898915  0.61065592  0.75111122    -0.30200
H1995       H  0.87293808  0.60666082  0.78461127     0.18200
C1996       C  0.76698074  0.61306583  0.68600100    -0.29200
N1997       N  0.74187912  0.59968252  0.72391258     0.15000
C1998       C  0.76470172  0.61407665  0.76036900    -0.29200
C1999       C  0.89677396  0.73413077  0.68252321    -0.29500
N2000       N  0.90967605  0.75947469  0.71950905     0.15500
H2001       H  0.90153009  0.74289433  0.64823298     0.18200
C2002       C  0.89647155  0.73767486  0.75696943    -0.29500
H2003       H  0.90044639  0.75011332  0.79114717     0.18200
H2004       H  0.75265956  0.60696642  0.79482080     0.18200
H2005       H  0.87557509  0.60335364  0.64165467     0.18200
H2006       H  0.75795989  0.60511812  0.65172236     0.18200
O2007       O  0.57828432  0.98820505  0.86125793    -0.73200
O2008       O  0.56642155  0.96294140  0.92950331    -0.52200
C2009       C  0.58039197  0.96786056  0.88859941     0.80500
O2010       O  0.57121478  0.63956404  0.96181378    -0.57800
O2011       O  0.52354136  0.62082459  0.91329655    -0.50900
C2012       C  0.55527527  0.64746662  0.93526802     0.72500
O2013       O  0.62087230  0.57717346  0.98757005    -0.72400
O2014       O  0.59206551  0.51168400  0.99749466    -0.53000
C2015       C  0.62331240  0.54946961  0.99480647     0.78500
O2016       O  0.52887762  0.06719567  0.85024004    -0.57600
O2017       O  0.92377471  0.46347628  0.84738889    -0.50700
C2018       C  0.91389558  0.42871556  0.85061985     0.75100
Zr2019     Zr  0.55663864  0.03178941  0.86984831     2.54700
O2020       O  0.62057632  0.58487442  0.88960536    -0.78100
O2021       O  0.01976812  0.93367328  0.79481828    -0.91500
Zr2022     Zr  0.56684911  0.58267891  0.98369627     2.64700
O2023       O  0.63286286  0.64891878  0.97014456    -0.96500
O2024       O  0.58580149  0.61644074  0.05785273    -0.78500
O2025       O  0.57167700  0.53577453  0.94079833    -0.81900
O2026       O  0.54855372  0.57373314  0.90894991    -2.16600
O2027       O  0.86705990  0.91631547  0.93256631    -0.65300
O2028       O  0.88824818  0.97377791  0.90121831    -0.49900
C2029       C  0.86037257  0.93801867  0.91581349     0.73500
O2030       O  0.04431502  0.52318144  0.51676406    -0.58200
O2031       O  0.47697082  0.93813049  0.53145835    -0.50200
C2032       C  0.04331779  0.99880157  0.52951827     0.75300
O2033       O  0.97653356  0.58260293  0.99338219    -0.69600
O2034       O  0.94291105  0.55679921  0.92971372    -0.48300
C2035       C  0.95335360  0.57930503  0.96552087     0.76700
O2036       O  0.92735514  0.87805834  0.99532376    -0.64900
O2037       O  0.99391653  0.90604275  0.99399700    -0.52100
C2038       C  0.95547853  0.87558960  0.99875288     0.75000
Zr2039     Zr  0.92421415  0.92310703  0.95601797     2.77500
O2040       O  0.87361565  0.89591667  0.01961979    -0.95700
O2041       O  0.89397704  0.86357399  0.90444152    -0.76500
Zr2042     Zr  0.00020054  0.54350842  0.00507333     2.70900
O2043       O  0.93748678  0.02058899  0.54236919    -0.77700
O2044       O  0.54692770  0.58873033  0.54633655    -0.96800
Zr2045     Zr  0.52511065  0.97645826  0.97258207     2.21500
Zr2046     Zr  0.96603822  0.52061065  0.89820633     2.11100
O2047       O  0.93542729  0.98622978  0.96876730    -2.45500
O2048       O  0.98625959  0.98560789  0.96503061    -0.77500
O2049       O  0.98208954  0.98188914  0.92251187    -0.69700
O2050       O  0.51887529  0.51875224  0.02185848    -2.30700
O2051       O  0.98229584  0.92841037  0.92602635    -2.26900
O2052       O  0.50052497  0.56447381  0.98317424    -0.71500
H2053       H  0.56934181  0.60005851  0.89636539     0.80500
H2054       H  0.56339572  0.54221603  0.52204125     0.81600
H2055       H  0.91145023  0.98267093  0.98017763     0.83800
H2056       H  0.97676309  0.90275631  0.91963744     0.81400
H2057       H  0.61428795  0.62772659  0.05994683     0.44500
H2058       H  0.57070729  0.59787334  0.52585938     0.43400
H2059       H  0.93445548  0.04181843  0.54370202     0.43100
H2060       H  0.86035026  0.90826868  0.01885107     0.41000
H2061       H  0.86849497  0.84150051  0.92048297     0.44200
H2062       H  0.00305342  0.90464811  0.80147267     0.39000
H2063       H  0.63678394  0.57540738  0.88701530     0.45100
H2064       H  0.65303535  0.64997930  0.98535246     0.41500
H2065       H  0.85236409  0.86696644  0.01105429     0.46400
H2066       H  0.62268326  0.08507611  0.80590521     0.45100
H2067       H  0.64000647  0.64846423  0.93766509     0.45300
H2068       H  0.05390070  0.63229798  0.52613762     0.45600
O2069       O  0.52710759  0.92088482  0.61389970    -0.73200
O2070       O  0.56321904  0.94631888  0.67551456    -0.52200
C2071       C  0.55231355  0.92497796  0.63891178     0.80500
O2072       O  0.57082567  0.61676450  0.63186624    -0.57800
O2073       O  0.50500850  0.58938084  0.62536080    -0.50900
C2074       C  0.54347726  0.62024578  0.62591512     0.72500
O2075       O  0.62755482  0.56169590  0.66200221    -0.72400
O2076       O  0.60938435  0.51762411  0.71573176    -0.53000
C2077       C  0.63551977  0.54651327  0.68935418     0.78500
O2078       O  0.42195035  0.92185980  0.62026623    -0.57600
O2079       O  0.99798812  0.56255261  0.59113573    -0.50700
C2080       C  0.00356722  0.53692939  0.58444576     0.75100
Zr2081     Zr  0.49294351  0.95120946  0.61301422     2.54700
O2082       O  0.54721191  0.48368068  0.55394477    -0.78100
O2083       O  0.05133950  0.95407160  0.58291371    -0.91500
Zr2084     Zr  0.57308306  0.56136749  0.64370206     2.64700
O2085       O  0.61357931  0.58358542  0.57316208    -0.96500
O2086       O  0.63286388  0.62761484  0.66985193    -0.78500
O2087       O  0.55548770  0.49493147  0.64283201    -0.81900
O2088       O  0.51057417  0.51353355  0.60395886    -2.16600
O2089       O  0.88106211  0.93266329  0.61497981    -0.65300
O2090       O  0.90711320  0.99841172  0.62876592    -0.49900
C2091       C  0.87832429  0.96111729  0.61600043     0.73500
O2092       O  0.91107026  0.41427797  0.76107381    -0.58200
O2093       O  0.53411714  0.97239277  0.79441200    -0.50200
C2094       C  0.91731789  0.89032220  0.76444528     0.75300
O2095       O  0.91058306  0.51598939  0.75586544    -0.69600
O2096       O  0.95150270  0.56510137  0.70696938    -0.48300
C2097       C  0.92107584  0.54639346  0.73499825     0.76700
O2098       O  0.91638420  0.86481004  0.67128932    -0.64900
O2099       O  0.97189837  0.88510409  0.70607494    -0.52100
C2100       C  0.93807663  0.85796184  0.68768106     0.75000
Zr2101     Zr  0.92259362  0.92318643  0.65346717     2.77500
O2102       O  0.85998540  0.87742102  0.70001095    -0.95700
O2103       O  0.89909864  0.88051839  0.58364848    -0.76500
Zr2104     Zr  0.94366883  0.48565288  0.76183115     2.70100
O2105       O  0.86792274  0.93567330  0.78978958    -0.77700
O2106       O  0.56622509  0.60827638  0.79675415    -0.96800
Zr2107     Zr  0.53602723  0.97575461  0.71647095     2.21500
Zr2108     Zr  0.97949851  0.53764013  0.66290476     2.11100
O2109       O  0.91676746  0.97160886  0.69133376    -2.45500
O2110       O  0.97241240  0.97605219  0.70003881    -0.77500
O2111       O  0.98465073  0.98813229  0.66038146    -0.69700
O2112       O  0.56038520  0.54222870  0.71974592    -2.30700
O2113       O  0.98893147  0.94036447  0.64764090    -2.26900
O2114       O  0.52552423  0.56768091  0.68067864    -0.71500
H2115       H  0.51255219  0.51957089  0.57294995     0.80500
H2116       H  0.58551735  0.56124048  0.73442781     0.81600
H2117       H  0.88974538  0.96332308  0.69498560     0.83800
H2118       H  0.98783333  0.91845627  0.63340228     0.81400
H2119       H  0.63007012  0.62722331  0.70307050     0.44500
H2120       H  0.59234930  0.62027963  0.77937466     0.43400
H2121       H  0.85167658  0.92887510  0.76391006     0.43100
H2122       H  0.84218284  0.88368014  0.69368159     0.41000
H2123       H  0.87598687  0.85288629  0.59329722     0.44200
H2124       H  0.07974410  0.96544272  0.57410372     0.39000
H2125       H  0.56536610  0.47751734  0.55887546     0.45100
H2126       H  0.63791428  0.61181557  0.57969457     0.41500
H2127       H  0.84667178  0.84992652  0.68609283     0.46400
H2128       H  0.47378723  0.88062931  0.56381997     0.45100
H2129       H  0.62376796  0.56804996  0.56927865     0.45300
H2130       H  0.93171398  0.52585525  0.83518995     0.45600
C2131       C  0.65722834  0.85138506  0.83750450     0.32000
C2132       C  0.65580202  0.85464257  0.93581450     0.32100
C2133       C  0.64146561  0.87305013  0.86503391    -0.04100
C2134       C  0.63122339  0.81050675  0.86275444    -0.04900
C2135       C  0.69810622  0.87389436  0.86079573    -0.04800
C2136       C  0.64078643  0.87419294  0.91331732    -0.04200
C2137       C  0.63084595  0.81308127  0.91077325    -0.04900
C2138       C  0.69679889  0.87494569  0.90891531    -0.04800
C2139       C  0.62648350  0.89454614  0.92946333    -0.30200
N2140       N  0.61859622  0.90647988  0.89467079     0.16300
C2141       C  0.62763293  0.89372888  0.85526740    -0.30200
H2142       H  0.62381671  0.89841193  0.82206228     0.18200
C2143       C  0.60935255  0.77501207  0.92551248    -0.29200
N2144       N  0.59683719  0.74848107  0.88959150     0.15000
C2145       C  0.60957266  0.76946203  0.85123158    -0.29200
C2146       C  0.73551474  0.89562669  0.92127562    -0.29500
N2147       N  0.76059652  0.90744498  0.88363825     0.15500
H2148       H  0.74484654  0.90180294  0.95541776     0.18200
C2149       C  0.73851967  0.89487856  0.84678929    -0.29500
H2150       H  0.75089106  0.89990297  0.81236707     0.18200
H2151       H  0.60480952  0.75608985  0.81743634     0.18200
H2152       H  0.62189859  0.90021243  0.96467467     0.18200
H2153       H  0.60388218  0.76756009  0.96042031     0.18200
C2154       C  0.65509424  0.83871157  0.58560422     0.32000
C2155       C  0.65936568  0.84386965  0.68297170     0.32100
C2156       C  0.63658689  0.85604702  0.61514589    -0.04100
C2157       C  0.63368436  0.79815017  0.61037928    -0.04900
C2158       C  0.69790067  0.86503064  0.60524924    -0.04800
C2159       C  0.63884992  0.85854984  0.66274804    -0.04200
C2160       C  0.63613324  0.80116956  0.65825724    -0.04900
C2161       C  0.70022907  0.86762436  0.65302759    -0.04800
C2162       C  0.62174689  0.87581460  0.68060032    -0.30200
N2163       N  0.60887299  0.88351841  0.64682695     0.16300
C2164       C  0.61766810  0.87166122  0.60682100    -0.30200
H2165       H  0.61194308  0.87524264  0.57410448     0.18200
C2166       C  0.61853612  0.76288270  0.67153695    -0.29200
N2167       N  0.60467631  0.73637637  0.63521932     0.15000
C2168       C  0.61376660  0.75740048  0.59788190    -0.29200
C2169       C  0.74077146  0.88794652  0.66008256    -0.29500
N2170       N  0.76284029  0.89840392  0.61986815     0.15500
H2171       H  0.75289051  0.89226948  0.69213301     0.18200
C2172       C  0.73688264  0.88395719  0.58648146    -0.29500
H2173       H  0.74515433  0.88432150  0.55095205     0.18200
H2174       H  0.60866819  0.74461520  0.56380293     0.18200
H2175       H  0.61935778  0.88294261  0.71591814     0.18200
H2176       H  0.61750083  0.75515569  0.70530814     0.18200
C2177       C  0.65978292  0.84682475  0.73821736    -0.11200
C2178       C  0.65874371  0.84902314  0.78214583    -0.12800
C2179       C  0.65567515  0.85430454  0.99064580    -0.11200
C2180       C  0.65384529  0.83857504  0.53139135    -0.12800
C2181       C  0.55724585  0.66187868  0.61921547    -0.14400
C2182       C  0.59168528  0.69569211  0.63674747    -0.29600
H2183       H  0.53773186  0.66464101  0.60256702     0.14600
H2184       H  0.60868103  0.69190229  0.65701080     0.15200
C2185       C  0.80309939  0.90999116  0.61371484    -0.14400
C2186       C  0.83751628  0.94886486  0.60849412    -0.29600
H2187       H  0.80566791  0.88690873  0.61905101     0.14600
H2188       H  0.83493527  0.97238631  0.60619785     0.15200
C2189       C  0.59226472  0.90439987  0.65478020    -0.14400
C2190       C  0.56958548  0.90380882  0.62585023    -0.29600
H2191       H  0.59721281  0.92014646  0.68737988     0.14600
H2192       H  0.56265374  0.88686736  0.59384610     0.15200
C2193       C  0.57611638  0.69061863  0.92967928    -0.14400
C2194       C  0.57498907  0.70550381  0.89256282    -0.29600
H2195       H  0.59567128  0.71120478  0.95627261     0.14600
H2196       H  0.55844965  0.68522578  0.86406874     0.15200
C2197       C  0.80340133  0.92826200  0.88334934    -0.14400
C2198       C  0.81752947  0.91928885  0.91343101    -0.29600
H2199       H  0.82373844  0.94963562  0.85748757     0.14600
H2200       H  0.79608499  0.89502855  0.93616642     0.15200
C2201       C  0.59912034  0.94775772  0.87328147    -0.14400
C2202       C  0.60042787  0.92627249  0.90282020    -0.29600
H2203       H  0.61179444  0.95082783  0.83906603     0.14600
H2204       H  0.58806575  0.92474387  0.93694090     0.15200
C2205       C  0.88331366  0.84903931  0.77455907    -0.16500
C2206       C  0.85362112  0.83396937  0.79966017     0.07600
C2207       C  0.84836304  0.35756209  0.83318768     0.09500
C2208       C  0.87194029  0.39230111  0.84690957    -0.17300
C2209       C  0.00725220  0.96294816  0.54787826    -0.16500
C2210       C  0.97384351  0.94509192  0.56397718     0.07600
C2211       C  0.95605341  0.46118767  0.57861629     0.09500
C2212       C  0.96972173  0.49542911  0.58494003    -0.17300
C2213       C  0.89521383  0.57760500  0.70774812    -0.14400
C2214       C  0.89677201  0.56030224  0.74185901    -0.29600
H2215       H  0.90944492  0.57823980  0.67506929     0.14600
H2216       H  0.88023679  0.55610979  0.77386941     0.15200
C2217       C  0.92925844  0.80178199  0.71918130    -0.14400
C2218       C  0.92146333  0.81580282  0.68746457    -0.29600
H2219       H  0.94806384  0.82179786  0.74666189     0.14600
H2220       H  0.89935130  0.79502539  0.66280627     0.15200
C2221       C  0.69822184  0.57444746  0.72589817    -0.14400
C2222       C  0.67819500  0.56442232  0.68866354    -0.29600
H2223       H  0.68169467  0.56606144  0.75849144     0.14600
H2224       H  0.69443064  0.57455487  0.65626787     0.15200
C2225       C  0.93646997  0.60123829  0.97570340    -0.14400
C2226       C  0.91249053  0.59871813  0.94682851    -0.29600
H2227       H  0.94274604  0.61847766  0.00739433     0.14600
H2228       H  0.90800972  0.58282021  0.91440644     0.15200
C2229       C  0.94176083  0.83397230  0.00402283    -0.14400
C2230       C  0.90912264  0.80203034  0.98190562    -0.29600
H2231       H  0.96014478  0.82993745  0.02107045     0.14600
H2232       H  0.89412815  0.80790752  0.96102779     0.15200
C2233       C  0.69727821  0.59331777  0.97584804    -0.14400
C2234       C  0.66440312  0.56159492  0.99823098    -0.29600
H2235       H  0.70252918  0.62058624  0.47210816     0.14600
H2236       H  0.66727005  0.54257573  0.01589826     0.15200
C2237       C  0.84363063  0.65773712  0.86685523    -0.11200
C2238       C  0.84434931  0.65731215  0.82329837    -0.12800
C2239       C  0.84783381  0.65596140  0.61577446    -0.11200
C2240       C  0.84899859  0.65896686  0.57267846    -0.12800
loop_ 
_geom_bond_atom_site_label_1 
_geom_bond_atom_site_label_2 
_geom_bond_distance 
_geom_bond_site_symmetry_2 
_ccdc_geom_bond_type 
C1            C3   1.559       .  S
C1            C5   1.595       .  S
C1            C4   1.549       .  S
C1          C280   1.640       .  S
C2            C6   1.555       .  S
C2            C8   1.549       .  S
C2            C7   1.531       .  S
C2          C277   1.641       .  S
C3           C11   1.380       .  A
C3          C286   1.436   1_554  A
C4           C15   1.376       .  A
C4          C287   1.429   1_554  A
C5           C19   1.401       .  A
C5          C288   1.435   1_554  A
C6            C9   1.369       .  A
C6          C283   1.438       .  A
C7           C13   1.355       .  A
C7          C284   1.435       .  A
C8           C16   1.368       .  A
C8          C285   1.436       .  A
C9           N10   1.359       .  A
C9           H22   1.083       .  S
N10         C291   1.364       .  A
N10         C266   1.441       .  S
C11         N290   1.361   1_554  A
C11          H12   1.082       .  S
C13         N294   1.350       .  A
C13          H23   1.083       .  S
N14          C15   1.356   1_556  A
N14         C293   1.357       .  A
N14         C553   1.426       .  S
C15          H21   1.083       .  S
C16         N297   1.359       .  A
C16          H18   1.083       .  S
N17          C19   1.376   1_556  A
N17         C296   1.357       .  A
N17         C550   1.460       .  S
C19          H20   1.082       .  S
C24          C26   1.559       .  S
C24          C28   1.559       .  S
C24          C27   1.592       .  S
C24         C278   1.640       .  S
C25          C29   1.551       .  S
C25          C31   1.536       .  S
C25          C30   1.575       .  S
C25         C279   1.641       .  S
C26          C34   1.381       .  A
C26          C29   1.432       .  A
C27          C38   1.402       .  A
C27          C30   1.439       .  A
C28          C42   1.386       .  A
C28          C31   1.425       .  A
C29          C32   1.371       .  A
C30          C36   1.391       .  A
C31          C39   1.358       .  A
C32          N33   1.358       .  A
C32          H45   1.083       .  S
N33          C34   1.363       .  A
N33         C253   1.441       .  S
C34          H35   1.081       .  S
C36          N37   1.367       .  A
C36          H46   1.082       .  S
N37          C38   1.373       .  A
N37         C261   1.468       .  S
C38          H44   1.082       .  S
C39          N40   1.357       .  A
C39          H41   1.082       .  S
N40          C42   1.363       .  A
N40         C257   1.440       .  S
C42          H43   1.083       .  S
O47         Zr59   2.461       .  S
O47          C49   1.281       .  A
O48         Zr85   2.355       .  S
O48          C49   1.267       .  A
C49         C241   1.464       .  S
O50         Zr62   2.446       .  S
O50          C52   1.288       .  A
O51       Zr1206   2.481   1_455  S
O51          C52   1.292       .  A
C52         C233   1.491       .  S
O53         Zr62   2.433       .  S
O53          C55   1.283       .  A
O54        Zr645   2.417   1_545  S
O54          C55   1.283       .  A
C55         C274   1.459       .  S
O56         Zr59   2.413   1_655  S
O56        C1738   1.276       .  A
O57         Zr86   2.361   1_565  S
O57          C58   1.259       .  A
C58        O1736   1.278       .  A
C58         C248   1.462       .  S
Zr59        O620   2.426       .  S
Zr59       O1181   2.437       .  S
Zr59        O625   2.310       .  S
Zr59        O626   2.434       .  S
Zr59       O1209   2.375   1_455  S
Zr59       O1211   2.315   1_455  S
O60        Zr619   2.433   1_545  S
O60         H103   0.991   1_545  S
O61       Zr1179   2.456       .  S
O61         H102   0.992       .  S
O61        H1226   0.988       .  S
Zr62         O63   2.427       .  S
Zr62         O64   2.438       .  S
Zr62         O66   2.383       .  S
Zr62         O65   2.405       .  S
Zr62         O90   2.331       .  S
Zr62         O92   2.376       .  S
O63         H104   0.989       .  S
O63         H107   0.989       .  S
O64          H97   0.990       .  S
O65        Zr619   2.310   1_545  S
O65        Zr645   2.358   1_545  S
O66        Zr619   2.437   1_545  S
O66       Zr1206   2.437   1_455  S
O66          H93   0.957       .  S
O67         Zr79   2.484       .  S
O67          C69   1.294       .  A
O68        Zr646   2.471       .  S
O68          C69   1.294       .  A
C69         C238   1.487       .  S
O70        Zr362   2.417   1_566  S
O70         C632   1.272   1_556  A
O71        Zr365   2.367   1_554  S
O71        C1192   1.256       .  A
C72         O630   1.273   1_554  A
C72        O1191   1.265       .  A
C72         C249   1.448       .  S
O73         Zr82   2.480       .  S
O73          C75   1.286       .  A
O74         Zr86   2.371       .  S
O74          C75   1.273       .  A
C75         C265   1.486       .  S
O76         Zr79   2.479       .  S
O76          C78   1.292       .  A
O77       Zr1205   2.437       .  S
O77          C78   1.286       .  A
C78         C269   1.461       .  S
Zr79         O80   2.437       .  S
Zr79         O81   2.432       .  S
Zr79         O87   2.429       .  S
Zr79         O88   2.354       .  S
Zr79         O91   2.446       .  S
Zr79         O89   2.379       .  S
O80         H100   0.989       .  S
O80         H105   0.990       .  S
O81         H101   0.991       .  S
Zr82        O350   2.440   1_545  S
Zr82        O923   2.422       .  S
Zr82       O1484   2.418       .  S
Zr82        O648   2.368   1_545  S
Zr82        O647   2.306   1_545  S
Zr82       O1212   2.308       .  S
Zr82       O1210   2.395       .  S
O83        Zr922   2.468       .  S
O83          H99   0.990       .  S
O84       Zr1482   2.485   1_455  S
O84          H98   0.987   1_554  S
O84        H1228   0.990       .  S
Zr85        O614   2.415       .  S
Zr85        O351   2.352       .  S
Zr85       O1197   2.527       .  S
Zr85        O625   2.348       .  S
Zr85       O1208   2.442   1_455  S
Zr85        O650   2.484       .  S
Zr85       O1211   2.386   1_455  S
Zr86       O1171   2.459       .  S
Zr86        O628   2.469       .  S
Zr86       O1186   2.407       .  S
Zr86        O647   2.366   1_545  S
Zr86        O649   2.357   1_545  S
Zr86       O1212   2.335       .  S
O87        Zr642   2.309       .  S
O87        Zr646   2.366       .  S
O87          H95   0.966       .  S
O88        Zr642   2.367       .  S
O88       Zr1205   2.353       .  S
O89       Zr1179   2.390       .  S
O89        Zr646   2.357       .  S
O90       Zr1202   2.382       .  S
O90        Zr645   2.489   1_545  S
O90         H374   0.974       .  S
O91       Zr1179   2.318       .  S
O91       Zr1205   2.372       .  S
O91          H96   0.965       .  S
O92       Zr1202   2.310       .  S
O92       Zr1206   2.330   1_455  S
H94         O370   0.968   1_554  S
H106       O1181   0.989       .  S
H108       O1204   0.990       .  S
O109       Zr121   2.530       .  S
O109        C111   1.298       .  A
O110       Zr147   2.374       .  S
O110        C111   1.274       .  A
C111        C230   1.505       .  S
O112       Zr124   2.485       .  S
O112        C114   1.291       .  A
O113      Zr1268   2.376   1_455  S
O113        C114   1.276       .  A
C114        C221   1.470       .  S
O115       Zr124   2.473       .  S
O115        C117   1.286       .  A
O116       Zr707   2.560   1_455  S
O116        C117   1.305   1_565  A
C117        C262   1.529       .  S
O118       Zr121   2.460       .  S
O118       C1800   1.268       .  A
O119       Zr148   2.379   1_565  S
O119        C120   1.262       .  A
C120       O1798   1.278       .  A
C120        C252   1.463       .  S
Zr121       O682   2.434       .  S
Zr121      O1243   2.440       .  S
Zr121       O687   2.270       .  S
Zr121       O688   2.408       .  S
Zr121      O1271   2.422   1_455  S
Zr121      O1273   2.437   1_455  S
O122       Zr681   2.430       .  S
O122        H165   0.990       .  S
O123      Zr1241   2.438       .  S
O123        H164   0.991       .  S
O123       H1288   0.987       .  S
Zr124       O125   2.468       .  S
Zr124       O126   2.417       .  S
Zr124       O128   2.326       .  S
Zr124       O127   2.376       .  S
Zr124       O152   2.504   1_445  S
Zr124       O154   2.418   1_455  S
O125        H166   0.988       .  S
O125        H169   0.990       .  S
O126        H159   0.990       .  S
O127       Zr681   2.266       .  S
O127       Zr707   2.329   1_445  S
O128       Zr681   2.414       .  S
O128      Zr1268   2.457   1_455  S
O128        H155   0.966       .  S
O129       Zr141   2.481       .  S
O129        C131   1.295       .  A
O130       Zr708   2.473       .  S
O130        C131   1.297       .  A
C131        C226   1.468       .  S
O132       Zr144   2.440   1_565  S
O132        C694   1.280       .  A
O133       Zr147   2.434   1_655  S
O133       C1254   1.273       .  A
C134        O692   1.278       .  A
C134       O1253   1.263       .  A
C134        C245   1.449       .  S
O135       Zr144   2.461       .  S
O135        C137   1.284       .  A
O136       Zr148   2.390       .  S
O136        C137   1.277       .  A
C137        C254   1.482       .  S
O138       Zr141   2.441       .  S
O138        C140   1.286       .  A
O139      Zr1267   2.460       .  S
O139        C140   1.290       .  A
C140        C258   1.458       .  S
Zr141       O142   2.443       .  S
Zr141       O143   2.443       .  S
Zr141       O149   2.437       .  S
Zr141       O150   2.355       .  S
Zr141       O153   2.428       .  S
Zr141       O151   2.379       .  S
O142        H162   0.990       .  S
O142        H167   0.990       .  S
O143        H163   0.991       .  S
Zr144       O705   2.462   1_545  S
Zr144      O1266   2.425       .  S
Zr144       O710   2.364   1_545  S
Zr144       O709   2.272   1_545  S
Zr144      O1274   2.319       .  S
Zr144      O1272   2.384       .  S
O145       Zr704   2.461       .  S
O145        H161   0.990       .  S
O146      Zr1264   2.441   1_545  S
O146        H160   0.988       .  S
O146       H1290   0.989       .  S
Zr147       O676   2.553       .  S
Zr147      O1259   2.434   1_455  S
Zr147       O687   2.328       .  S
Zr147      O1270   2.356   1_455  S
Zr147       O712   2.386   1_455  S
Zr147      O1273   2.404   1_455  S
Zr148      O1233   2.500       .  S
Zr148       O690   2.461       .  S
Zr148      O1248   2.402       .  S
Zr148       O709   2.372   1_545  S
Zr148       O711   2.365   1_545  S
Zr148      O1274   2.329       .  S
O149       Zr704   2.267       .  S
O149       Zr708   2.368       .  S
O149        H157   0.962       .  S
O150       Zr704   2.366       .  S
O150      Zr1267   2.358       .  S
O151      Zr1241   2.378       .  S
O151       Zr708   2.370       .  S
O152      Zr1264   2.409       .  S
O152       Zr707   2.382       .  S
O152        H156   0.953       .  S
O153      Zr1241   2.331       .  S
O153      Zr1267   2.370       .  S
O153        H158   0.966       .  S
O154      Zr1264   2.344   1_545  S
O154      Zr1268   2.357       .  S
H168       O1243   0.990       .  S
H170       O1266   0.991       .  S
C171        C173   1.538       .  S
C171        C175   1.572       .  S
C171        C174   1.572       .  S
C171        C218   1.642       .  S
C172        C176   1.554       .  S
C172        C178   1.550       .  S
C172        C177   1.553       .  S
C172        C219   1.643       .  S
C173        C181   1.362       .  A
C173        C176   1.432       .  A
C174        C185   1.392       .  A
C174        C177   1.437       .  A
C175        C189   1.387       .  A
C175        C178   1.436       .  A
C176        C179   1.373       .  A
C177        C183   1.367       .  A
C178        C186   1.371       .  A
C179        N180   1.361       .  A
C179        H192   1.083       .  S
N180        C181   1.354       .  A
N180        C242   1.429       .  S
C181        H182   1.081       .  S
C183        N184   1.357       .  A
C183        H193   1.083       .  S
N184        C185   1.367       .  A
N184        C234   1.442       .  S
C185        H191   1.082       .  S
C186        N187   1.355       .  A
C186        H188   1.083       .  S
N187        C189   1.365       .  A
N187        C237   1.435       .  S
C189        H190   1.082       .  S
C194        C196   1.567       .  S
C194        C198   1.547       .  S
C194        C197   1.575       .  S
C194        C220   1.636       .  S
C195        C199   1.574       .  S
C195        C201   1.542       .  S
C195        C200   1.531       .  S
C195        C217   1.642       .  S
C196        C204   1.389       .  A
C196        C199   1.440       .  A
C197        C208   1.389       .  A
C197        C200   1.430       .  A
C198        C212   1.372       .  A
C198        C201   1.431       .  A
C199        C202   1.379       .  A
C200        C206   1.358       .  A
C201        C209   1.365       .  A
C202        N203   1.367       .  A
C202        H215   1.083       .  S
N203        C204   1.364       .  A
N203        C229   1.453       .  S
C204        H205   1.082       .  S
C206        N207   1.352       .  A
C206        H216   1.081       .  S
N207        C208   1.369       .  A
N207        C222   1.442       .  S
C208        H214   1.082       .  S
C209        N210   1.353       .  A
C209        H211   1.083       .  S
N210        C212   1.354       .  A
N210        C225   1.417       .  S
C212        H213   1.083       .  S
C217        C218   1.304       .  T
C219        C500   1.304       .  T
C220        C499   1.301       .  T
C221        C222   1.356       .  D
C221        H223   1.083       .  S
C222        H224   1.087       .  S
C225        C226   1.341       .  D
C225        H227   1.087       .  S
C226        H228   1.086       .  S
C229        C230   1.365       .  D
C229        H231   1.087       .  S
C230        H232   1.085       .  S
C233        C234   1.353       .  D
C233        H235   1.085       .  S
C234        H236   1.089       .  S
C237        C238   1.350       .  D
C237        H239   1.086       .  S
C238        H240   1.086       .  S
C241        C242   1.350       .  D
C241        H243   1.084       .  S
C242        H244   1.088       .  S
C245        C246   1.203       .  T
C246        C807   1.405       .  S
C247        C248   1.211       .  T
C247        C806   1.407       .  S
C249        C250   1.205       .  T
C250        C811   1.408       .  S
C251        C252   1.212       .  T
C251        C810   1.408       .  S
C253        C254   1.349       .  D
C253        H255   1.087       .  S
C254        H256   1.084       .  S
C257        C258   1.344       .  D
C257        H259   1.087       .  S
C258        H260   1.085       .  S
C261        C262   1.372       .  D
C261        H263   1.086       .  S
C262        H264   1.085       .  S
C265        C266   1.351       .  D
C265        H267   1.085       .  S
C266        H268   1.087       .  S
C269        C270   1.338       .  D
C269        H271   1.086       .  S
C270        N297   1.432       .  S
C270        H272   1.083       .  S
C273        N294   1.431       .  S
C273        C274   1.344       .  D
C273        H555   1.086       .  S
C274        H276   1.087       .  S
H275        C553   1.086   1_554  S
C277        C278   1.303       .  T
C279        C280   1.303       .  T
C281        C283   1.565       .  S
C281        C285   1.558       .  S
C281        C284   1.563       .  S
C281        C560   1.641       .  S
C282        C286   1.544       .  S
C282        C288   1.540       .  S
C282        C287   1.535       .  S
C282        C557   1.630       .  S
C283        C291   1.383       .  A
C284        C295   1.385       .  A
C285        C299   1.376       .  A
C286        C289   1.362       .  A
C287        C293   1.357       .  A
C288        C296   1.366       .  A
C289        N290   1.355       .  A
C289        H302   1.083       .  S
N290        C546   1.431       .  S
C291        H292   1.082       .  S
C293        H303   1.083       .  S
N294        C295   1.361       .  A
C295        H301   1.082       .  S
C296        H298   1.080       .  S
N297        C299   1.358       .  A
C299        H300   1.083       .  S
C304        C306   1.569       .  S
C304        C308   1.565       .  S
C304        C307   1.578       .  S
C304        C558   1.629       .  S
C305        C309   1.565       .  S
C305        C311   1.564       .  S
C305        C310   1.566       .  S
C305        C559   1.641       .  S
C306        C314   1.396       .  A
C306        C309   1.430       .  A
C307        C318   1.398       .  A
C307        C310   1.430       .  A
C308        C322   1.392       .  A
C308        C311   1.429       .  A
C309        C312   1.381       .  A
C310        C316   1.388       .  A
C311        C319   1.381       .  A
C312        N313   1.365       .  A
C312        H325   1.083       .  S
N313        C314   1.368       .  A
N313        C533   1.460       .  S
C314        H315   1.082       .  S
C316        N317   1.365       .  A
C316        H326   1.083       .  S
N317        C318   1.369       .  A
N317        C541   1.459       .  S
C318        H324   1.082       .  S
C319        N320   1.363       .  A
C319        H321   1.083       .  S
N320        C322   1.364       .  A
N320        C537   1.449       .  S
C322        H323   1.083       .  S
O327       Zr339   2.456       .  S
O327        C329   1.276       .  A
O328       Zr365   2.373       .  S
O328        C329   1.269       .  A
C329        C521   1.469       .  S
O330       Zr342   2.421       .  S
O330        C332   1.286       .  A
O331      Zr1486   2.510   1_455  S
O331        C332   1.298       .  A
C332        C513   1.493       .  S
O333       Zr342   2.403       .  S
O333        C335   1.278       .  A
O334       Zr925   2.428   1_545  S
O334        C335   1.284       .  A
C335        C554   1.450       .  S
O336       Zr339   2.396   1_655  S
O336       C2018   1.274       .  A
O337       Zr366   2.419       .  S
O337        C338   1.258       .  A
C338       O2016   1.303       .  A
C338        C528   1.422       .  S
Zr339       O900   2.402       .  S
Zr339      O1461   2.445       .  S
Zr339       O905   2.308       .  S
Zr339       O906   2.418       .  S
Zr339      O1489   2.381   1_455  S
Zr339      O1491   2.339   1_455  S
O340       Zr899   2.393   1_545  S
O340        H383   0.992       .  S
O341      Zr1459   2.469       .  S
O341        H382   0.990       .  S
O341       H1506   0.990       .  S
Zr342       O343   2.442       .  S
Zr342       O344   2.441       .  S
Zr342       O346   2.396       .  S
Zr342       O345   2.422       .  S
Zr342       O370   2.370       .  S
Zr342       O372   2.384       .  S
O343        H384   0.990       .  S
O343        H387   0.990       .  S
O344        H377   0.990       .  S
O345       Zr899   2.313   1_545  S
O345       Zr925   2.334   1_545  S
O346       Zr899   2.422   1_545  S
O346      Zr1486   2.391   1_455  S
O346        H373   0.960       .  S
O347       Zr359   2.466       .  S
O347        C349   1.294       .  A
O348       Zr926   2.530       .  S
O348        C349   1.303       .  A
C349        C518   1.497       .  S
O350        C912   1.280       .  A
O351       C1472   1.260       .  A
C352        O910   1.283       .  A
C352       O1471   1.261       .  A
C352        C529   1.460       .  S
O353       Zr362   2.454       .  S
O353        C355   1.281   1_554  A
O354       Zr366   2.366       .  S
O354        C355   1.272       .  A
C355        C545   1.476   1_556  S
O356       Zr359   2.486       .  S
O356        C358   1.292       .  A
O357      Zr1485   2.464       .  S
O357        C358   1.291       .  A
C358        C549   1.489       .  S
Zr359       O360   2.454       .  S
Zr359       O361   2.428       .  S
Zr359       O367   2.413       .  S
Zr359       O368   2.354       .  S
Zr359       O371   2.421       .  S
Zr359       O369   2.345       .  S
O360        H380   0.989       .  S
O360        H385   0.990       .  S
O361        H381   0.990       .  S
Zr362       O643   2.463   1_545  S
Zr362      O1204   2.434       .  S
Zr362       O928   2.363   1_544  S
Zr362       O927   2.272   1_544  S
Zr362      O1492   2.310   1_554  S
Zr362      O1490   2.384       .  S
O363       Zr642   2.426       .  S
O363        H379   0.992       .  S
O364      Zr1202   2.457       .  S
O364        H378   0.990       .  S
O364       H1508   0.990       .  S
Zr365       O894   2.432       .  S
Zr365      O1477   2.517   1_455  S
Zr365       O905   2.330       .  S
Zr365       O930   2.474       .  S
Zr365      O1491   2.388   1_455  S
Zr365      O1488   2.326   1_455  S
Zr366      O1451   2.410       .  S
Zr366       O908   2.539       .  S
Zr366      O1466   2.473       .  S
Zr366       O927   2.379   1_545  S
Zr366       O929   2.423       .  S
Zr366      O1492   2.357       .  S
O367       Zr922   2.275   1_556  S
O367       Zr926   2.377       .  S
O367        H375   0.963       .  S
O368       Zr922   2.364   1_556  S
O368      Zr1485   2.350       .  S
O369      Zr1459   2.372       .  S
O369       Zr926   2.422       .  S
O370      Zr1482   2.384   1_456  S
O370       Zr925   2.475   1_545  S
O371      Zr1459   2.424       .  S
O371      Zr1485   2.375       .  S
O371        H376   0.965       .  S
O372      Zr1482   2.242   1_456  S
O372      Zr1486   2.320   1_455  S
H386       O1461   0.989       .  S
H388       O1484   0.991       .  S
O389       Zr401   2.477       .  S
O389        C391   1.289       .  A
O390       Zr427   2.378       .  S
O390        C391   1.276       .  A
C391        C510   1.485       .  S
O392       Zr404   2.484       .  S
O392        C394   1.291       .  A
O393      Zr1548   2.423   1_455  S
O393        C394   1.281       .  A
C394        C501   1.485       .  S
O395       Zr404   2.458       .  S
O395        C397   1.288       .  A
O396       Zr987   2.559       .  S
O396        C397   1.307   1_565  A
C397        C542   1.516       .  S
O398       Zr401   2.464       .  S
O398       C2080   1.267       .  A
O399       Zr428   2.390   1_565  S
O399        C400   1.265       .  A
C400       O2078   1.278       .  A
C400        C532   1.444       .  S
Zr401       O962   2.459       .  S
Zr401      O1523   2.577       .  S
Zr401       O968   2.423       .  S
Zr401      O1553   2.384   1_455  S
Zr401       O967   2.208       .  S
Zr401      O1551   2.357   1_455  S
O402       Zr961   2.451       .  S
O402        H445   0.991       .  S
O403      Zr1521   2.471       .  S
O403        H444   0.989       .  S
O403       H1568   0.990       .  S
Zr404       O405   2.441       .  S
Zr404       O406   2.412       .  S
Zr404       O408   2.340       .  S
Zr404       O407   2.383       .  S
Zr404       O432   2.481       .  S
Zr404       O434   2.414   1_455  S
O405        H446   0.990       .  S
O405        H449   0.990       .  S
O406        H439   0.990       .  S
O407       Zr961   2.268       .  S
O407       Zr987   2.315   1_545  S
O408       Zr961   2.432       .  S
O408      Zr1548   2.454   1_455  S
O408        H435   0.966       .  S
O409       Zr421   2.449       .  S
O409        C411   1.285       .  A
O410       Zr988   2.445       .  S
O410        C411   1.288       .  A
C411        C506   1.460       .  S
O412       Zr424   2.418       .  S
O412        C974   1.264   1_545  A
O413       Zr427   2.430   1_655  S
O413       C1534   1.269       .  A
C414        O972   1.265       .  A
C414       O1533   1.249       .  A
C414        C525   1.389       .  S
O415       Zr424   2.543       .  S
O415        C417   1.298       .  A
O416       Zr428   2.417       .  S
O416        C417   1.280       .  A
C417        C534   1.514       .  S
O418       Zr421   2.466       .  S
O418        C420   1.290       .  A
O419      Zr1547   2.488       .  S
O419        C420   1.295       .  A
C420        C538   1.500       .  S
Zr421       O422   2.475       .  S
Zr421       O423   2.449       .  S
Zr421       O429   2.471       .  S
Zr421       O430   2.391       .  S
Zr421       O433   2.428       .  S
Zr421       O431   2.361       .  S
O422        H442   0.990       .  S
O422        H447   0.990       .  S
O423        H443   0.990       .  S
Zr424       O985   2.467       .  S
Zr424      O1546   2.475       .  S
Zr424       O989   2.404   1_545  S
Zr424      O1554   2.250       .  S
Zr424      O1552   2.377       .  S
Zr424       O990   2.345   1_545  S
O425       Zr984   2.437       .  S
O425        H441   0.992       .  S
O426      Zr1544   2.433   1_545  S
O426        H440   0.990       .  S
O426       H1570   0.990       .  S
Zr427       O956   2.558       .  S
Zr427      O1539   2.427   1_455  S
Zr427      O1550   2.382   1_455  S
Zr427       O992   2.365       .  S
Zr427      O1553   2.379   1_455  S
Zr427       O967   2.244       .  S
Zr428      O1513   2.523       .  S
Zr428       O970   2.446   1_545  S
Zr428      O1528   2.418       .  S
Zr428       O989   2.361   1_545  S
Zr428       O991   2.385   1_545  S
Zr428      O1554   2.316       .  S
O429       Zr984   2.431       .  S
O429       Zr988   2.361       .  S
O429        H437   0.965       .  S
O430       Zr984   2.406       .  S
O430      Zr1547   2.381       .  S
O431      Zr1521   2.375       .  S
O431       Zr988   2.382       .  S
O432      Zr1544   2.416   1_445  S
O432       Zr987   2.366   1_545  S
O432        H436   0.948   1_545  S
O433      Zr1521   2.316       .  S
O433      Zr1547   2.383       .  S
O433        H438   0.964       .  S
O434      Zr1544   2.353   1_545  S
O434      Zr1548   2.339       .  S
H448       O1523   0.987       .  S
H450       O1546   0.991       .  S
C451        C453   1.545       .  S
C451        C455   1.565       .  S
C451        C454   1.564       .  S
C451        C498   1.626       .  S
C452        C456   1.546       .  S
C452        C458   1.567       .  S
C452        C457   1.554       .  S
C452        C499   1.636   1_556  S
C453        C461   1.371       .  A
C453        C456   1.428       .  A
C454        C465   1.386       .  A
C454        C457   1.433       .  A
C455        C469   1.386       .  A
C455        C458   1.435       .  A
C456        C459   1.368       .  A
C457        C463   1.372       .  A
C458        C466   1.382       .  A
C459        N460   1.356       .  A
C459        H472   1.083       .  S
N460        C461   1.359       .  A
N460        C522   1.431       .  S
C461        H462   1.082       .  S
C463        N464   1.358       .  A
C463        H473   1.083       .  S
N464        C465   1.363       .  A
N464        C514   1.437       .  S
C465        H471   1.082       .  S
C466        N467   1.363       .  A
C466        H468   1.083       .  S
N467        C469   1.362       .  A
N467        C517   1.446       .  S
C469        H470   1.083       .  S
C474        C476   1.566       .  S
C474        C478   1.568       .  S
C474        C477   1.579       .  S
C474        C500   1.642       .  S
C475        C479   1.547       .  S
C475        C481   1.538       .  S
C475        C480   1.536       .  S
C475        C497   1.627       .  S
C476        C484   1.386       .  A
C476        C479   1.434       .  A
C477        C488   1.392       .  A
C477        C480   1.433       .  A
C478        C492   1.385       .  A
C478        C481   1.431       .  A
C479        C482   1.366       .  A
C480        C486   1.364       .  A
C481        C489   1.360       .  A
C482        N483   1.356       .  A
C482        H495   1.083       .  S
N483        C484   1.364       .  A
N483        C509   1.434       .  S
C484        H485   1.082       .  S
C486        N487   1.355       .  A
C486        H496   1.082       .  S
N487        C488   1.369       .  A
N487        C502   1.448       .  S
C488        H494   1.082       .  S
C489        N490   1.358       .  A
C489        H491   1.079       .  S
N490        C492   1.366       .  A
N490        C505   1.444       .  S
C492        H493   1.082       .  S
C497        C498   1.295       .  T
C501        C502   1.356       .  D
C501        H503   1.086       .  S
C502        H504   1.086       .  S
C505        C506   1.348       .  D
C505        H507   1.087       .  S
C506        H508   1.081       .  S
C509        C510   1.350       .  D
C509        H511   1.087       .  S
C510        H512   1.085       .  S
C513        C514   1.355       .  D
C513        H515   1.086       .  S
C514        H516   1.087       .  S
C517        C518   1.356       .  D
C517        H519   1.086       .  S
C518        H520   1.086       .  S
C521        C522   1.344       .  D
C521        H523   1.085       .  S
C522        H524   1.087       .  S
C525        C526   1.179       .  T
C526       C1087   1.368       .  S
C527        C528   1.187   1_565  T
C527       C1086   1.373       .  S
C529        C530   1.211       .  T
C530       C1091   1.406       .  S
C531        C532   1.203       .  T
C531       C1090   1.405       .  S
C533        C534   1.365       .  D
C533        H535   1.087       .  S
C534        H536   1.085       .  S
C537        C538   1.358       .  D
C537        H539   1.086       .  S
C538        H540   1.086       .  S
C541        C542   1.366       .  D
C541        H543   1.086       .  S
C542        H544   1.086       .  S
C545        C546   1.347   1_554  D
C545        H547   1.085       .  S
C546        H548   1.088       .  S
C549        C550   1.364       .  D
C549        H551   1.082       .  S
C550        H552   1.087   1_556  S
C553        C554   1.334       .  D
C554        H556   1.088       .  S
C557        C558   1.297       .  T
C559        C560   1.304       .  T
C561        C563   1.551       .  S
C561        C565   1.598       .  S
C561        C564   1.550       .  S
C561        C840   1.640       .  S
C562        C566   1.562       .  S
C562        C568   1.555       .  S
C562        C567   1.535       .  S
C562        C837   1.649       .  S
C563        C571   1.376       .  A
C563        C846   1.433   1_554  A
C564        C575   1.376       .  A
C564        C847   1.427   1_554  A
C565        C579   1.400       .  A
C565        C848   1.436   1_554  A
C566        C843   1.439       .  A
C566        C569   1.372       .  A
C567        C844   1.431       .  A
C567        C573   1.356       .  A
C568        C845   1.436       .  A
C568        C576   1.371       .  A
C569        N570   1.362       .  A
C569        H582   1.083       .  S
N570        C851   1.363       .  A
N570        C826   1.444       .  S
C571        N850   1.357   1_554  A
C571        H572   1.082       .  S
C573        N854   1.354       .  A
C573        H583   1.083       .  S
N574        C853   1.357       .  A
N574        C575   1.357   1_556  A
N574       C1113   1.429       .  S
C575        H581   1.082       .  S
C576        N857   1.362       .  A
C576        H578   1.082       .  S
N577        C856   1.357       .  A
N577        C579   1.377   1_556  A
N577       C1110   1.461       .  S
C579        H580   1.082       .  S
C584        C586   1.555       .  S
C584        C588   1.562       .  S
C584        C587   1.589       .  S
C584        C838   1.648       .  S
C585        C589   1.553       .  S
C585        C591   1.533       .  S
C585        C590   1.573       .  S
C585        C839   1.642       .  S
C586        C594   1.377       .  A
C586        C589   1.434       .  A
C587        C598   1.398       .  A
C587        C590   1.441       .  A
C588        C602   1.384       .  A
C588        C591   1.428       .  A
C589        C592   1.369       .  A
C590        C596   1.389       .  A
C591        C599   1.359       .  A
C592        N593   1.359       .  A
C592        H605   1.083       .  S
N593        C594   1.361       .  A
N593        C813   1.436       .  S
C594        H595   1.082       .  S
C596        N597   1.366       .  A
C596        H606   1.083       .  S
N597        C598   1.371       .  A
N597        C821   1.462       .  S
C598        H604   1.082       .  S
C599        N600   1.355       .  A
C599        H601   1.083       .  S
N600        C602   1.363       .  A
N600        C817   1.436       .  S
C602        H603   1.082       .  S
O607       Zr619   2.468       .  S
O607        C609   1.284       .  A
O608       Zr645   2.363       .  S
O608        C609   1.270       .  A
C609        C801   1.466       .  S
O610       Zr622   2.433       .  S
O610        C612   1.286       .  A
O611      Zr1766   2.490   1_455  S
O611        C612   1.295       .  A
C612        C793   1.493       .  S
O613       Zr622   2.440       .  S
O613        C615   1.285       .  A
O614        C615   1.281       .  A
C615        C834   1.460       .  S
O616       Zr619   2.411   1_655  S
O616       C1178   1.276       .  A
O617       Zr646   2.366       .  S
O617        C618   1.260       .  A
C618       O1176   1.277       .  A
C618        C808   1.462       .  S
Zr619      O1741   2.431       .  S
Zr619      O1769   2.376   1_455  S
Zr619      O1771   2.311   1_455  S
O620        H663   0.992       .  S
O621      Zr1739   2.453       .  S
O621        H662   0.992       .  S
O621       H1786   0.988       .  S
Zr622       O623   2.429       .  S
Zr622       O624   2.436       .  S
Zr622       O626   2.390       .  S
Zr622       O625   2.396       .  S
Zr622       O650   2.330       .  S
Zr622       O652   2.384       .  S
O623        H664   0.990       .  S
O623        H667   0.990       .  S
O624        H657   0.990       .  S
O626      Zr1766   2.426   1_455  S
O626        H653   0.948       .  S
O627       Zr639   2.497       .  S
O627        C629   1.295       .  A
O628        C629   1.294   1_545  A
C629        C798   1.491       .  S
O630       Zr922   2.425   1_556  S
O631       Zr925   2.367   1_554  S
O631       C1752   1.256       .  A
C632       O1751   1.265       .  A
C632        C809   1.447       .  S
O633       Zr642   2.494       .  S
O633        C635   1.289       .  A
O634       Zr646   2.367       .  S
O634        C635   1.272       .  A
C635        C825   1.492       .  S
O636       Zr639   2.474       .  S
O636        C638   1.291       .  A
O637      Zr1765   2.472       .  S
O637        C638   1.293       .  A
C638        C829   1.478       .  S
Zr639       O640   2.446       .  S
Zr639       O641   2.435       .  S
Zr639       O647   2.430       .  S
Zr639       O648   2.356       .  S
Zr639       O651   2.451       .  S
Zr639       O649   2.378       .  S
O640        H660   0.990       .  S
O640        H665   0.990       .  S
O641        H661   0.991       .  S
Zr642       O910   2.447       .  S
Zr642      O2044   2.428       .  S
Zr642      O1772   2.302       .  S
Zr642      O1770   2.395       .  S
O643        H659   0.990       .  S
O644      Zr2042   2.481       .  S
O644        H658   0.987   1_554  S
O644       H1788   0.990       .  S
Zr645       O911   2.373   1_565  S
Zr645      O1757   2.537       .  S
Zr645      O1768   2.443   1_455  S
Zr645      O1771   2.386   1_455  S
Zr646      O1731   2.470       .  S
Zr646      O1746   2.406       .  S
Zr646      O1772   2.336       .  S
O647        H655   0.965       .  S
O648      Zr1765   2.353       .  S
O649      Zr1739   2.393       .  S
O650      Zr1762   2.390       .  S
O650        H934   0.973       .  S
O651      Zr1739   2.314       .  S
O651      Zr1765   2.365       .  S
O651        H656   0.965       .  S
O652      Zr1762   2.310       .  S
O652      Zr1766   2.332   1_455  S
H654        O930   0.970       .  S
H666       O1741   0.989       .  S
H668       O1764   0.990       .  S
O669       Zr681   2.546   1_565  S
O669        C671   1.301       .  A
O670       Zr707   2.375   1_455  S
O670        C671   1.273       .  A
C671        C790   1.512       .  S
O672       Zr684   2.490       .  S
O672        C674   1.292       .  A
O673      Zr1828   2.386   1_455  S
O673        C674   1.279       .  A
C674        C781   1.475       .  S
O675       Zr684   2.460       .  S
O675        C677   1.286       .  A
O676        C677   1.305       .  A
C677        C822   1.521       .  S
O678       Zr681   2.456       .  S
O678       C1240   1.268       .  A
O679       Zr708   2.362       .  S
O679        C680   1.260       .  A
C680       O1238   1.280       .  A
C680        C812   1.464       .  S
Zr681      O1803   2.442       .  S
Zr681      O1831   2.428   1_445  S
Zr681      O1833   2.431   1_445  S
O682        H725   0.990       .  S
O683      Zr1801   2.435       .  S
O683        H724   0.991       .  S
O683       H1848   0.987       .  S
Zr684       O685   2.452       .  S
Zr684       O686   2.416       .  S
Zr684       O688   2.327       .  S
Zr684       O687   2.374       .  S
Zr684       O712   2.498   1_455  S
Zr684       O714   2.413   1_455  S
O685        H726   0.989       .  S
O685        H729   0.989       .  S
O686        H719   0.989       .  S
O688      Zr1828   2.450   1_455  S
O688        H715   0.963       .  S
O689       Zr701   2.477       .  S
O689        C691   1.294       .  A
O690        C691   1.294   1_545  A
C691        C786   1.469       .  S
O692       Zr704   2.435       .  S
O693       Zr707   2.437       .  S
O693       C1814   1.275       .  A
C694       O1813   1.262       .  A
C694        C805   1.448       .  S
O695       Zr704   2.461       .  S
O695        C697   1.284       .  A
O696       Zr708   2.378       .  S
O696        C697   1.275       .  A
C697        C814   1.480       .  S
O698       Zr701   2.449       .  S
O698        C700   1.287       .  A
O699      Zr1827   2.450       .  S
O699        C700   1.289       .  A
C700        C818   1.459       .  S
Zr701       O702   2.447       .  S
Zr701       O703   2.441       .  S
Zr701       O709   2.432       .  S
Zr701       O710   2.354       .  S
Zr701       O713   2.433       .  S
Zr701       O711   2.381       .  S
O702        H722   0.990       .  S
O702        H727   0.990       .  S
O703        H723   0.991       .  S
Zr704      O1826   2.426       .  S
Zr704      O1834   2.324       .  S
Zr704      O1832   2.386       .  S
O705        H721   0.990       .  S
O706      Zr1824   2.443       .  S
O706        H720   0.988       .  S
O706       H1850   0.989       .  S
Zr707      O1819   2.429       .  S
Zr707      O1830   2.359       .  S
Zr707      O1833   2.401       .  S
Zr708      O1793   2.500       .  S
Zr708      O1808   2.402       .  S
Zr708      O1834   2.326       .  S
O709        H717   0.964       .  S
O710      Zr1827   2.362       .  S
O711      Zr1801   2.376       .  S
O712      Zr1824   2.411       .  S
O712        H716   0.960       .  S
O713      Zr1801   2.329       .  S
O713      Zr1827   2.377       .  S
O713        H718   0.966       .  S
O714      Zr1824   2.345       .  S
O714      Zr1828   2.355       .  S
H728       O1803   0.990       .  S
H730       O1826   0.991       .  S
C731        C733   1.537       .  S
C731        C735   1.572       .  S
C731        C734   1.563       .  S
C731        C778   1.641       .  S
C732        C736   1.559       .  S
C732        C738   1.554       .  S
C732        C737   1.562       .  S
C732        C779   1.645       .  S
C733        C741   1.361       .  A
C733        C736   1.431       .  A
C734        C745   1.385       .  A
C734        C737   1.437       .  A
C735        C749   1.388       .  A
C735        C738   1.437       .  A
C736        C739   1.378       .  A
C737        C743   1.374       .  A
C738        C746   1.374       .  A
C739        N740   1.363       .  A
C739        H752   1.083       .  S
N740        C741   1.354       .  A
N740        C802   1.433       .  S
C741        H742   1.081       .  S
C743        N744   1.359       .  A
C743        H753   1.083       .  S
N744        C745   1.362       .  A
N744        C794   1.438       .  S
C745        H751   1.083       .  S
C746        N747   1.357       .  A
C746        H748   1.083       .  S
N747        C749   1.365       .  A
N747        C797   1.439       .  S
C749        H750   1.082       .  S
C754        C756   1.573       .  S
C754        C758   1.549       .  S
C754        C757   1.570       .  S
C754        C780   1.638       .  S
C755        C759   1.577       .  S
C755        C761   1.543       .  S
C755        C760   1.537       .  S
C755        C777   1.642       .  S
C756        C764   1.393       .  A
C756        C759   1.441       .  A
C757        C768   1.387       .  A
C757        C760   1.429       .  A
C758        C772   1.374       .  A
C758        C761   1.431       .  A
C759        C762   1.383       .  A
C760        C766   1.365       .  A
C761        C769   1.364       .  A
C762        N763   1.368       .  A
C762        H775   1.083       .  S
N763        C764   1.366       .  A
N763        C789   1.459       .  S
C764        H765   1.082       .  S
C766        N767   1.355       .  A
C766        H776   1.081       .  S
N767        C768   1.367       .  A
N767        C782   1.444       .  S
C768        H774   1.082       .  S
C769        N770   1.353       .  A
C769        H771   1.083       .  S
N770        C772   1.356       .  A
N770        C785   1.418       .  S
C772        H773   1.083       .  S
C777        C778   1.304       .  T
C779       C1060   1.306       .  T
C780       C1059   1.302       .  T
C781        C782   1.354       .  D
C781        H783   1.084       .  S
C782        H784   1.087       .  S
C785        C786   1.341       .  D
C785        H787   1.087       .  S
C786        H788   1.086       .  S
C789        C790   1.369       .  D
C789        H791   1.087       .  S
C790        H792   1.085       .  S
C793        C794   1.356       .  D
C793        H795   1.086       .  S
C794        H796   1.086       .  S
C797        C798   1.350       .  D
C797        H799   1.086       .  S
C798        H800   1.086       .  S
C801        C802   1.352       .  D
C801        H803   1.084       .  S
C802        H804   1.088       .  S
C805        C806   1.204       .  T
C807        C808   1.210       .  T
C809        C810   1.205       .  T
C811        C812   1.212       .  T
C813        C814   1.349       .  D
C813        H815   1.087       .  S
C814        H816   1.085       .  S
C817        C818   1.342       .  D
C817        H819   1.086       .  S
C818        H820   1.086       .  S
C821        C822   1.368       .  D
C821        H823   1.086       .  S
C822        H824   1.086       .  S
C825        C826   1.356       .  D
C825        H827   1.085       .  S
C826        H828   1.087       .  S
C829        C830   1.345       .  D
C829        H831   1.084       .  S
C830        N857   1.445       .  S
C830        H832   1.077       .  S
C833        N854   1.432       .  S
C833        C834   1.343       .  D
C833       H1115   1.086       .  S
C834        H836   1.087       .  S
H835       C1113   1.086   1_554  S
C837        C838   1.308       .  T
C839        C840   1.303       .  T
C841        C843   1.563       .  S
C841        C845   1.565       .  S
C841        C844   1.559       .  S
C841       C1120   1.639       .  S
C842        C846   1.544       .  S
C842        C848   1.541       .  S
C842        C847   1.532       .  S
C842       C1117   1.626       .  S
C843        C851   1.383       .  A
C844        C855   1.384       .  A
C845        C859   1.382       .  A
C846        C849   1.361       .  A
C847        C853   1.354       .  A
C848        C856   1.369       .  A
C849        N850   1.356       .  A
C849        H862   1.083       .  S
N850       C1106   1.425       .  S
C851        H852   1.082       .  S
C853        H863   1.083       .  S
N854        C855   1.361       .  A
C855        H861   1.082       .  S
C856        H858   1.081       .  S
N857        C859   1.363       .  A
C859        H860   1.083       .  S
C864        C866   1.568       .  S
C864        C868   1.566       .  S
C864        C867   1.578       .  S
C864       C1118   1.624       .  S
C865        C869   1.564       .  S
C865        C871   1.563       .  S
C865        C870   1.574       .  S
C865       C1119   1.639       .  S
C866        C874   1.395       .  A
C866        C869   1.429       .  A
C867        C878   1.398       .  A
C867        C870   1.429       .  A
C868        C882   1.395       .  A
C868        C871   1.426       .  A
C869        C872   1.380       .  A
C870        C876   1.394       .  A
C871        C879   1.382       .  A
C872        N873   1.364       .  A
C872        H885   1.083       .  S
N873        C874   1.368       .  A
N873       C1093   1.458       .  S
C874        H875   1.082       .  S
C876        N877   1.368       .  A
C876        H886   1.082       .  S
N877        C878   1.370       .  A
N877       C1101   1.465       .  S
C878        H884   1.082       .  S
C879        N880   1.364       .  A
C879        H881   1.083       .  S
N880        C882   1.366       .  A
N880       C1097   1.454       .  S
C882        H883   1.082       .  S
O887       Zr899   2.458       .  S
O887        C889   1.278       .  A
O888       Zr925   2.375       .  S
O888        C889   1.270       .  A
C889       C1081   1.472       .  S
O890       Zr902   2.430       .  S
O890        C892   1.287       .  A
O891      Zr2046   2.521   1_455  S
O891        C892   1.299       .  A
C892       C1073   1.496       .  S
O893       Zr902   2.396       .  S
O893        C895   1.276       .  A
O894        C895   1.285       .  A
C895       C1114   1.449       .  S
O896       Zr899   2.395   1_655  S
O896       C1458   1.273       .  A
O897       Zr926   2.408       .  S
O897        C898   1.260       .  A
C898       O1456   1.304       .  A
C898       C1088   1.414       .  S
Zr899      O2021   2.442       .  S
Zr899      O2049   2.378   1_455  S
Zr899      O2051   2.343   1_455  S
O900        H943   0.991       .  S
O901      Zr2019   2.463       .  S
O901        H942   0.989       .  S
O901       H2066   0.990       .  S
Zr902       O903   2.438       .  S
Zr902       O904   2.442       .  S
Zr902       O906   2.398       .  S
Zr902       O905   2.419       .  S
Zr902       O930   2.378       .  S
Zr902       O932   2.381       .  S
O903        H944   0.990       .  S
O903        H947   0.990       .  S
O904        H937   0.990       .  S
O906      Zr2046   2.382   1_455  S
O906        H933   0.945       .  S
O907       Zr919   2.471       .  S
O907        C909   1.295       .  A
O908        C909   1.305   1_545  A
C909       C1078   1.498       .  S
O911       C2032   1.260   1_545  A
C912       O2031   1.259       .  A
C912       C1089   1.460       .  S
O913       Zr922   2.459       .  S
O913        C915   1.281   1_554  A
O914       Zr926   2.344       .  S
O914        C915   1.268       .  A
C915       C1105   1.479   1_556  S
O916       Zr919   2.496       .  S
O916        C918   1.293       .  A
O917      Zr2045   2.464       .  S
O917        C918   1.291       .  A
C918       C1109   1.493       .  S
Zr919       O920   2.455       .  S
Zr919       O921   2.430       .  S
Zr919       O927   2.414       .  S
Zr919       O928   2.349       .  S
Zr919       O931   2.420       .  S
Zr919       O929   2.343   1_565  S
O920        H940   0.989       .  S
O920        H945   0.990       .  S
O921        H941   0.990       .  S
Zr922      O1764   2.439       .  S
Zr922      O2052   2.309   1_554  S
Zr922      O2050   2.383       .  S
O923        H939   0.992       .  S
O924      Zr1762   2.465       .  S
O924        H938   0.989       .  S
O924       H2068   0.990       .  S
Zr925      O2037   2.516   1_455  S
Zr925      O2051   2.384   1_455  S
Zr925      O2048   2.325   1_455  S
Zr926      O2011   2.422       .  S
Zr926      O2026   2.466       .  S
Zr926      O2052   2.349       .  S
O927        H935   0.960       .  S
O928      Zr2045   2.346       .  S
O929      Zr2019   2.364       .  S
O930      Zr2042   2.390   1_556  S
O931      Zr2019   2.427   1_565  S
O931      Zr2045   2.374       .  S
O931        H936   0.965       .  S
O932      Zr2042   2.243   1_556  S
O932      Zr2046   2.319   1_455  S
H946       O2021   0.989       .  S
H948       O2044   0.991       .  S
O949       Zr961   2.508   1_565  S
O949        C951   1.295       .  A
O950       Zr987   2.369       .  S
O950        C951   1.273       .  A
C951       C1070   1.492       .  S
O952       Zr964   2.488       .  S
O952        C954   1.291       .  A
O953      Zr2108   2.442   1_455  S
O953        C954   1.285       .  A
C954       C1061   1.493       .  S
O955       Zr964   2.452       .  S
O955        C957   1.286       .  A
O956        C957   1.309       .  A
C957       C1102   1.524       .  S
O958       Zr961   2.450       .  S
O958       C1520   1.268       .  A
O959       Zr988   2.404       .  S
O959        C960   1.265       .  A
C960       O1518   1.275       .  A
C960       C1092   1.444       .  S
Zr961      O2083   2.560   1_545  S
Zr961      O2113   2.381   1_445  S
Zr961      O2111   2.366   1_445  S
O962       H1005   0.990       .  S
O963      Zr2081   2.446       .  S
O963       H1004   0.989       .  S
O963       H2128   0.987       .  S
Zr964       O965   2.443       .  S
Zr964       O966   2.419       .  S
Zr964       O968   2.347       .  S
Zr964       O992   2.478       .  S
Zr964       O994   2.412   1_455  S
Zr964       O967   2.297       .  S
O965       H1006   0.991       .  S
O965       H1009   0.990       .  S
O966        H999   0.990       .  S
O968      Zr2108   2.464   1_455  S
O968        H995   0.969       .  S
O969       Zr981   2.455       .  S
O969        C971   1.287       .  A
O970        C971   1.288       .  A
C971       C1066   1.462       .  S
O972       Zr984   2.413       .  S
O973       Zr987   2.402   1_655  S
O973       C2094   1.267       .  A
C974       O2093   1.249       .  A
C974       C1085   1.394       .  S
O975       Zr984   2.509       .  S
O975        C977   1.294       .  A
O976       Zr988   2.429       .  S
O976        C977   1.284       .  A
C977       C1094   1.507       .  S
O978       Zr981   2.477       .  S
O978        C980   1.292       .  A
O979      Zr2107   2.496       .  S
O979        C980   1.296       .  A
C980       C1098   1.506       .  S
Zr981       O982   2.483       .  S
Zr981       O983   2.456       .  S
Zr981       O989   2.449       .  S
Zr981       O993   2.415       .  S
Zr981       O991   2.347       .  S
Zr981       O990   2.333       .  S
O982       H1002   0.990       .  S
O982       H1007   0.990       .  S
O983       H1003   0.990       .  S
Zr984      O2106   2.489       .  S
Zr984      O2114   2.265       .  S
Zr984      O2112   2.384       .  S
O985       H1001   0.991       .  S
O986      Zr2104   2.424       .  S
O986       H1000   0.989       .  S
O986       H2130   0.990       .  S
Zr987      O2099   2.422   1_455  S
Zr987      O2110   2.379   1_455  S
Zr987      O2113   2.383   1_455  S
Zr988      O2073   2.510       .  S
Zr988      O2088   2.421       .  S
Zr988      O2114   2.324       .  S
O989        H997   0.964       .  S
O990      Zr2107   2.322       .  S
O991      Zr2081   2.372       .  S
O992      Zr2104   2.415   1_455  S
O992        H996   0.962       .  S
O993      Zr2081   2.303       .  S
O993      Zr2107   2.377       .  S
O993        H998   0.964       .  S
O994      Zr2104   2.349       .  S
O994      Zr2108   2.331       .  S
H1008      O2083   0.988       .  S
H1010      O2106   0.991       .  S
C1011      C1013   1.544       .  S
C1011      C1015   1.570       .  S
C1011      C1014   1.563       .  S
C1011      C1058   1.625       .  S
C1012      C1016   1.544       .  S
C1012      C1018   1.568       .  S
C1012      C1017   1.561       .  S
C1012      C1059   1.638   1_556  S
C1013      C1021   1.372       .  A
C1013      C1016   1.426       .  A
C1014      C1025   1.387       .  A
C1014      C1017   1.433       .  A
C1015      C1029   1.390       .  A
C1015      C1018   1.435       .  A
C1016      C1019   1.367       .  A
C1017      C1023   1.376       .  A
C1018      C1026   1.382       .  A
C1019      N1020   1.356       .  A
C1019      H1032   1.083       .  S
N1020      C1021   1.360       .  A
N1020      C1082   1.431       .  S
C1021      H1022   1.082       .  S
C1023      N1024   1.361       .  A
C1023      H1033   1.083       .  S
N1024      C1025   1.363       .  A
N1024      C1074   1.442       .  S
C1025      H1031   1.083       .  S
C1026      N1027   1.364       .  A
C1026      H1028   1.083       .  S
N1027      C1029   1.364       .  A
N1027      C1077   1.449       .  S
C1029      H1030   1.082       .  S
C1034      C1036   1.571       .  S
C1034      C1038   1.569       .  S
C1034      C1037   1.580       .  S
C1034      C1060   1.644       .  S
C1035      C1039   1.549       .  S
C1035      C1041   1.534       .  S
C1035      C1040   1.541       .  S
C1035      C1057   1.626       .  S
C1036      C1044   1.390       .  A
C1036      C1039   1.436       .  A
C1037      C1048   1.393       .  A
C1037      C1040   1.431       .  A
C1038      C1052   1.387       .  A
C1038      C1041   1.430       .  A
C1039      C1042   1.369       .  A
C1040      C1046   1.371       .  A
C1041      C1049   1.357       .  A
C1042      N1043   1.356       .  A
C1042      H1055   1.083       .  S
N1043      C1044   1.365       .  A
N1043      C1069   1.440       .  S
C1044      H1045   1.082       .  S
C1046      N1047   1.358       .  A
C1046      H1056   1.082       .  S
N1047      C1048   1.369       .  A
N1047      C1062   1.451       .  S
C1048      H1054   1.082       .  S
C1049      N1050   1.356       .  A
C1049      H1051   1.081       .  S
N1050      C1052   1.366       .  A
N1050      C1065   1.442       .  S
C1052      H1053   1.082       .  S
C1057      C1058   1.294       .  T
C1061      C1062   1.356       .  D
C1061      H1063   1.086       .  S
C1062      H1064   1.086       .  S
C1065      C1066   1.348       .  D
C1065      H1067   1.087       .  S
C1066      H1068   1.083       .  S
C1069      C1070   1.355       .  D
C1069      H1071   1.088       .  S
C1070      H1072   1.085       .  S
C1073      C1074   1.356       .  D
C1073      H1075   1.086       .  S
C1074      H1076   1.087       .  S
C1077      C1078   1.358       .  D
C1077      H1079   1.085       .  S
C1078      H1080   1.086       .  S
C1081      C1082   1.344       .  D
C1081      H1083   1.085       .  S
C1082      H1084   1.087       .  S
C1085      C1086   1.182       .  T
C1087      C1088   1.183       .  T
C1089      C1090   1.210       .  T
C1091      C1092   1.203       .  T
C1093      C1094   1.361       .  D
C1093      H1095   1.087       .  S
C1094      H1096   1.085       .  S
C1097      C1098   1.361       .  D
C1097      H1099   1.087       .  S
C1098      H1100   1.086       .  S
C1101      C1102   1.372       .  D
C1101      H1103   1.085       .  S
C1102      H1104   1.086       .  S
C1105      C1106   1.351   1_554  D
C1105      H1107   1.085       .  S
C1106      H1108   1.087       .  S
C1109      C1110   1.364       .  D
C1109      H1111   1.082       .  S
C1110      H1112   1.086   1_556  S
C1113      C1114   1.335       .  D
C1114      H1116   1.087       .  S
C1117      C1118   1.294       .  T
C1119      C1120   1.302       .  T
C1121      C1123   1.566   1_554  S
C1121      C1125   1.565       .  S
C1121      C1124   1.562   1_554  S
C1121      C1400   1.629       .  S
C1122      C1126   1.559       .  S
C1122      C1128   1.559       .  S
C1122      C1127   1.546       .  S
C1122      C1397   1.639       .  S
C1123      C1131   1.389       .  A
C1123      C1406   1.432       .  A
C1124      C1135   1.386   1_556  A
C1124      C1407   1.430       .  A
C1125      C1139   1.390       .  A
C1125      C1408   1.435   1_554  A
C1126      C1403   1.433       .  A
C1126      C1129   1.377       .  A
C1127      C1404   1.434       .  A
C1127      C1133   1.371       .  A
C1128      C1405   1.435       .  A
C1128      C1136   1.377       .  A
C1129      N1130   1.362       .  A
C1129      H1142   1.083       .  S
N1130      C1411   1.366       .  A
N1130      C1386   1.450       .  S
C1131      N1410   1.366       .  A
C1131      H1132   1.082   1_556  S
C1133      N1414   1.353       .  A
C1133      H1143   1.083       .  S
N1134      C1413   1.357       .  A
N1134      C1135   1.362   1_556  A
N1134      C1673   1.439       .  S
C1135      H1141   1.082       .  S
C1136      N1417   1.360       .  A
C1136      H1138   1.083       .  S
N1137      C1416   1.365       .  A
N1137      C1139   1.363   1_556  A
N1137      C1670   1.450       .  S
C1139      H1140   1.083       .  S
C1144      C1146   1.547       .  S
C1144      C1148   1.574       .  S
C1144      C1147   1.576       .  S
C1144      C1398   1.637       .  S
C1145      C1149   1.546       .  S
C1145      C1151   1.536       .  S
C1145      C1150   1.553       .  S
C1145      C1399   1.630       .  S
C1146      C1154   1.373       .  A
C1146      C1149   1.430       .  A
C1147      C1158   1.391       .  A
C1147      C1150   1.438       .  A
C1148      C1162   1.389       .  A
C1148      C1151   1.430       .  A
C1149      C1152   1.367       .  A
C1150      C1156   1.368       .  A
C1151      C1159   1.366       .  A
C1152      N1153   1.357       .  A
C1152      H1165   1.083       .  S
N1153      C1154   1.358       .  A
N1153      C1373   1.428       .  S
C1154      H1155   1.082       .  S
C1156      N1157   1.356       .  A
C1156      H1166   1.083       .  S
N1157      C1158   1.366       .  A
N1157      C1381   1.437       .  S
C1158      H1164   1.082       .  S
C1159      N1160   1.354       .  A
C1159      H1161   1.082       .  S
N1160      C1162   1.367       .  A
N1160      C1377   1.444       .  S
C1162      H1163   1.082       .  S
O1167     Zr1179   2.480       .  S
O1167      C1169   1.282       .  A
O1168     Zr1205   2.341       .  S
O1168      C1169   1.267       .  A
C1169      C1361   1.476       .  S
O1170     Zr1182   2.416       .  S
O1170      C1172   1.281       .  A
O1171      C1172   1.288       .  A
C1172      C1353   1.469       .  S
O1173     Zr1182   2.413       .  S
O1173      C1175   1.283       .  A
O1174     Zr1765   2.466   1_545  S
O1174      C1175   1.289       .  A
C1175      C1394   1.481       .  S
O1176     Zr1179   2.433       .  S
O1177     Zr1206   2.409   1_565  S
O1177      C1178   1.276       .  A
C1178      C1368   1.450       .  S
Zr1179     O1740   2.424       .  S
Zr1179     O1745   2.304       .  S
Zr1179     O1746   2.404       .  S
O1180     Zr1739   2.424   1_545  S
O1180      H1223   0.991       .  S
O1181      H1222   0.991   1_455  S
Zr1182     O1183   2.440       .  S
Zr1182     O1184   2.441       .  S
Zr1182     O1186   2.418       .  S
Zr1182     O1185   2.410       .  S
Zr1182     O1210   2.431       .  S
Zr1182     O1212   2.409       .  S
O1183      H1224   0.990       .  S
O1183      H1227   0.990       .  S
O1184      H1217   0.990       .  S
O1185     Zr1739   2.303   1_545  S
O1185     Zr1765   2.344   1_545  S
O1186     Zr1739   2.405   1_545  S
O1186      H1213   0.961       .  S
O1187     Zr1199   2.427       .  S
O1187      C1189   1.282       .  A
O1188     Zr1766   2.483       .  S
O1188      C1189   1.291       .  A
C1189      C1358   1.470       .  S
O1190     Zr1482   2.479   1_455  S
O1190      C1752   1.266   1_545  A
O1191     Zr1485   2.408   1_554  S
C1192      O1750   1.269       .  A
C1192      C1369   1.388   1_455  S
O1193     Zr1202   2.478   1_655  S
O1193      C1195   1.291       .  A
O1194     Zr1206   2.419       .  S
O1194      C1195   1.282       .  A
C1195      C1385   1.497       .  S
O1196     Zr1199   2.435       .  S
O1196      C1198   1.287       .  A
O1197      C1198   1.302   1_455  A
C1198      C1389   1.504       .  S
Zr1199     O1200   2.425       .  S
Zr1199     O1201   2.438       .  S
Zr1199     O1207   2.403       .  S
Zr1199     O1208   2.280       .  S
Zr1199     O1211   2.400       .  S
Zr1199     O1209   2.367       .  S
O1200      H1220   0.990       .  S
O1200      H1225   0.990       .  S
O1201      H1221   0.990       .  S
Zr1202     O1470   2.535       .  S
Zr1202     O2043   2.471   1_455  S
Zr1202     O1768   2.350   1_445  S
Zr1202     O1767   2.365   1_445  S
O1203     Zr2042   2.506   1_655  S
O1203      H1219   0.990       .  S
O1204      H1218   0.983       .  S
Zr1205     O1734   2.462       .  S
Zr1205     O1471   2.358       .  S
Zr1205     O1745   2.338       .  S
Zr1205     O1770   2.378       .  S
Zr1206     O1748   2.475   1_545  S
Zr1206     O1767   2.344   1_545  S
Zr1206     O1769   2.348   1_545  S
O1207     Zr1762   2.359   1_655  S
O1207     Zr1766   2.334       .  S
O1207      H1215   0.960       .  S
O1208     Zr1762   2.349   1_655  S
O1209     Zr1766   2.348       .  S
O1210     Zr1765   2.388   1_545  S
O1210      H1494   0.951       .  S
O1211      H1216   0.964       .  S
H1214      O1490   0.956       .  S
O1229     Zr1241   2.481       .  S
O1229      C1231   1.285       .  A
O1230     Zr1267   2.373       .  S
O1230      C1231   1.273       .  A
C1231      C1350   1.485       .  S
O1232     Zr1244   2.445       .  S
O1232      C1234   1.286       .  A
O1233      C1234   1.295       .  A
C1234      C1341   1.501       .  S
O1235     Zr1244   2.412       .  S
O1235      C1237   1.282       .  A
O1236     Zr1827   2.490   1_545  S
O1236      C1237   1.294       .  A
C1237      C1382   1.492       .  S
O1238     Zr1241   2.435       .  S
O1239     Zr1268   2.396   1_455  S
O1239      C1240   1.249       .  A
C1240      C1372   1.390   1_455  S
Zr1241     O1802   2.440       .  S
Zr1241     O1807   2.302       .  S
Zr1241     O1808   2.396       .  S
O1242     Zr1801   2.439   1_545  S
O1242      H1285   0.990       .  S
O1243      H1284   0.989       .  S
Zr1244     O1245   2.441       .  S
Zr1244     O1246   2.433       .  S
Zr1244     O1248   2.424       .  S
Zr1244     O1247   2.411       .  S
Zr1244     O1272   2.448       .  S
Zr1244     O1274   2.403       .  S
O1245      H1286   0.990       .  S
O1245      H1289   0.990       .  S
O1246      H1279   0.990       .  S
O1247     Zr1801   2.302   1_545  S
O1247     Zr1827   2.343   1_545  S
O1248     Zr1801   2.403   1_545  S
O1248      H1275   0.960       .  S
O1249     Zr1261   2.454       .  S
O1249      C1251   1.291       .  A
O1250     Zr1828   2.526       .  S
O1250      C1251   1.305       .  A
C1251      C1346   1.487       .  S
O1252     Zr1264   2.393       .  S
O1252      C1814   1.271       .  A
O1253     Zr1267   2.396       .  S
C1254      O1812   1.274       .  A
C1254      C1365   1.441       .  S
O1255     Zr1264   2.461   1_545  S
O1255      C1257   1.279       .  A
O1256     Zr1268   2.364       .  S
O1256      C1257   1.267       .  A
C1257      C1374   1.466       .  S
O1258     Zr1261   2.456       .  S
O1258      C1260   1.286       .  A
O1259      C1260   1.283       .  A
C1260      C1378   1.479       .  S
Zr1261     O1262   2.442       .  S
Zr1261     O1263   2.452       .  S
Zr1261     O1269   2.416       .  S
Zr1261     O1270   2.327       .  S
Zr1261     O1273   2.452       .  S
Zr1261     O1271   2.400       .  S
O1262      H1282   0.989       .  S
O1262      H1287   0.990       .  S
O1263      H1283   0.990       .  S
Zr1264     O1825   2.437       .  S
Zr1264     O1830   2.382       .  S
Zr1264     O1829   2.313       .  S
O1265     Zr1824   2.440       .  S
O1265      H1281   0.990       .  S
O1266      H1280   0.988       .  S
Zr1267     O1796   2.499       .  S
Zr1267     O1807   2.344       .  S
Zr1267     O1832   2.405       .  S
Zr1268     O1810   2.529       .  S
Zr1268     O1829   2.411   1_545  S
Zr1268     O1831   2.420   1_545  S
O1269     Zr1824   2.312       .  S
O1269     Zr1828   2.416       .  S
O1269      H1277   0.964       .  S
O1270     Zr1824   2.383       .  S
O1271     Zr1828   2.417       .  S
O1272     Zr1827   2.411   1_545  S
O1272      H1276   0.957       .  S
O1273      H1278   0.966       .  S
C1291      C1293   1.555       .  S
C1291      C1295   1.566       .  S
C1291      C1294   1.560       .  S
C1291      C1338   1.635       .  S
C1292      C1296   1.553       .  S
C1292      C1298   1.543       .  S
C1292      C1297   1.547       .  S
C1292      C1339   1.636       .  S
C1293      C1301   1.376       .  A
C1293      C1296   1.436       .  A
C1294      C1305   1.382       .  A
C1294      C1297   1.433       .  A
C1295      C1309   1.384       .  A
C1295      C1298   1.433       .  A
C1296      C1299   1.366       .  A
C1297      C1303   1.367       .  A
C1298      C1306   1.366       .  A
C1299      N1300   1.358       .  A
C1299      H1312   1.083       .  S
N1300      C1301   1.361       .  A
N1300      C1362   1.433       .  S
C1301      H1302   1.082       .  S
C1303      N1304   1.359       .  A
C1303      H1313   1.083       .  S
N1304      C1305   1.360       .  A
N1304      C1354   1.436       .  S
C1305      H1311   1.082       .  S
C1306      N1307   1.360       .  A
C1306      H1308   1.082       .  S
N1307      C1309   1.363       .  A
N1307      C1357   1.444       .  S
C1309      H1310   1.082       .  S
C1314      C1316   1.562       .  S
C1314      C1318   1.559       .  S
C1314      C1317   1.581       .  S
C1314      C1340   1.636       .  S
C1315      C1319   1.548       .  S
C1315      C1321   1.560       .  S
C1315      C1320   1.556       .  S
C1315      C1337   1.636       .  S
C1316      C1324   1.384       .  A
C1316      C1319   1.430       .  A
C1317      C1328   1.396       .  A
C1317      C1320   1.431       .  A
C1318      C1332   1.384       .  A
C1318      C1321   1.432       .  A
C1319      C1322   1.370       .  A
C1320      C1326   1.378       .  A
C1321      C1329   1.375       .  A
C1322      N1323   1.357       .  A
C1322      H1335   1.083       .  S
N1323      C1324   1.366       .  A
N1323      C1349   1.443       .  S
C1324      H1325   1.081       .  S
C1326      N1327   1.365       .  A
C1326      H1336   1.081       .  S
N1327      C1328   1.371       .  A
N1327      C1342   1.465       .  S
C1328      H1334   1.082       .  S
C1329      N1330   1.361       .  A
C1329      H1331   1.083       .  S
N1330      C1332   1.360       .  A
N1330      C1345   1.436       .  S
C1332      H1333   1.083       .  S
C1337      C1338   1.300       .  T
C1339      C1620   1.300       .  T
C1340      C1619   1.301   1_554  T
C1341      C1342   1.357       .  D
C1341      H1343   1.084       .  S
C1342      H1344   1.086       .  S
C1345      C1346   1.355       .  D
C1345      H1347   1.087       .  S
C1346      H1348   1.086       .  S
C1349      C1350   1.348       .  D
C1349      H1351   1.087       .  S
C1350      H1352   1.085       .  S
C1353      C1354   1.338       .  D
C1353      H1355   1.088       .  S
C1354      H1356   1.086       .  S
C1357      C1358   1.343       .  D
C1357      H1359   1.086       .  S
C1358      H1360   1.085       .  S
C1361      C1362   1.348       .  D
C1361      H1363   1.085       .  S
C1362      H1364   1.087       .  S
C1365      C1366   1.202       .  T
C1366      C1927   1.402       .  S
C1367      C1368   1.206       .  T
C1367      C1926   1.402       .  S
C1369      C1370   1.172       .  T
C1370      C1931   1.354       .  S
C1371      C1372   1.177   1_565  T
C1371      C1930   1.356       .  S
C1373      C1374   1.344       .  D
C1373      H1375   1.089       .  S
C1374      H1376   1.085       .  S
C1377      C1378   1.353       .  D
C1377      H1379   1.087       .  S
C1378      H1380   1.086       .  S
C1381      C1382   1.353       .  D
C1381      H1383   1.087       .  S
C1382      H1384   1.086       .  S
C1385      C1386   1.355       .  D
C1385      H1387   1.085       .  S
C1386      H1388   1.087       .  S
C1389      C1390   1.360       .  D
C1389      H1391   1.086       .  S
C1390      N1417   1.450       .  S
C1390      H1392   1.087       .  S
C1393      N1414   1.431       .  S
C1393      C1394   1.345       .  D
C1393      H1675   1.087       .  S
C1394      H1396   1.086       .  S
H1395      C1673   1.088       .  S
C1397      C1398   1.302       .  T
C1399      C1400   1.297       .  T
C1401      C1403   1.566       .  S
C1401      C1405   1.579       .  S
C1401      C1404   1.562       .  S
C1401      C1680   1.641       .  S
C1402      C1406   1.555       .  S
C1402      C1408   1.572       .  S
C1402      C1407   1.551       .  S
C1402      C1677   1.644       .  S
C1403      C1411   1.388       .  A
C1404      C1415   1.385       .  A
C1405      C1419   1.395       .  A
C1406      C1409   1.373       .  A
C1407      C1413   1.373       .  A
C1408      C1416   1.382       .  A
C1409      N1410   1.359       .  A
C1409      H1422   1.083       .  S
N1410      C1666   1.447       .  S
C1411      H1412   1.082       .  S
C1413      H1423   1.083       .  S
N1414      C1415   1.359       .  A
C1415      H1421   1.083       .  S
C1416      H1418   1.082       .  S
N1417      C1419   1.368       .  A
C1419      H1420   1.082       .  S
C1424      C1426   1.559       .  S
C1424      C1428   1.560       .  S
C1424      C1427   1.565       .  S
C1424      C1678   1.644       .  S
C1425      C1429   1.556       .  S
C1425      C1431   1.532       .  S
C1425      C1430   1.543       .  S
C1425      C1679   1.642       .  S
C1426      C1434   1.375       .  A
C1426      C1429   1.438       .  A
C1427      C1438   1.383       .  A
C1427      C1430   1.439       .  A
C1428      C1442   1.381       .  A
C1428      C1431   1.434       .  A
C1429      C1432   1.370       .  A
C1430      C1436   1.361       .  A
C1431      C1439   1.356       .  A
C1432      N1433   1.359       .  A
C1432      H1445   1.083       .  S
N1433      C1434   1.361       .  A
N1433      C1653   1.435       .  S
C1434      H1435   1.082       .  S
C1436      N1437   1.357       .  A
C1436      H1446   1.081       .  S
N1437      C1438   1.362       .  A
N1437      C1661   1.441       .  S
C1438      H1444   1.083       .  S
C1439      N1440   1.352       .  A
C1439      H1441   1.082       .  S
N1440      C1442   1.361       .  A
N1440      C1657   1.430       .  S
C1442      H1443   1.082       .  S
O1447     Zr1459   2.511       .  S
O1447      C1449   1.294       .  A
O1448     Zr1485   2.393       .  S
O1448      C1449   1.279       .  A
C1449      C1641   1.504       .  S
O1450     Zr1462   2.466       .  S
O1450      C1452   1.290       .  A
O1451      C1452   1.281       .  A
C1452      C1633   1.465       .  S
O1453     Zr1462   2.448       .  S
O1453      C1455   1.287       .  A
O1454     Zr2045   2.475   1_545  S
O1454      C1455   1.289       .  A
C1455      C1674   1.482   1_556  S
O1456     Zr1459   2.550       .  S
O1457     Zr1486   2.396   1_565  S
O1457      C1458   1.269       .  A
C1458      C1648   1.453       .  S
Zr1459     O2020   2.439       .  S
Zr1459     O2025   2.305       .  S
Zr1459     O2026   2.355       .  S
O1460     Zr2019   2.438       .  S
O1460      H1503   0.991       .  S
O1461      H1502   0.992       .  S
Zr1462     O1463   2.444       .  S
Zr1462     O1464   2.437   1_556  S
Zr1462     O1466   2.364       .  S
Zr1462     O1465   2.379       .  S
Zr1462     O1490   2.444   1_556  S
Zr1462     O1492   2.413       .  S
O1463      H1504   0.990       .  S
O1463      H1507   0.990       .  S
O1464      H1497   0.990       .  S
O1465     Zr2019   2.307       .  S
O1465     Zr2045   2.336   1_545  S
O1466     Zr2019   2.358       .  S
O1466      H1493   0.971       .  S
O1467     Zr1479   2.454       .  S
O1467      C1469   1.288       .  A
O1468     Zr2046   2.439       .  S
O1468      C1469   1.286       .  A
C1469      C1638   1.468       .  S
O1470      C2032   1.290   1_545  A
C1472      O2030   1.292       .  A
C1472      C1649   1.418       .  S
O1473     Zr1482   2.486   1_556  S
O1473      C1475   1.290       .  A
O1474     Zr1486   2.399       .  S
O1474      C1475   1.277       .  A
C1475      C1665   1.494       .  S
O1476     Zr1479   2.450       .  S
O1476      C1478   1.288       .  A
O1477      C1478   1.299       .  A
C1478      C1669   1.504   1_556  S
Zr1479     O1480   2.450   1_556  S
Zr1479     O1481   2.444       .  S
Zr1479     O1487   2.414       .  S
Zr1479     O1491   2.423       .  S
Zr1479     O1489   2.348       .  S
Zr1479     O1488   2.291       .  S
O1480      H1500   0.990       .  S
O1480      H1505   0.990       .  S
O1481      H1501   0.990       .  S
Zr1482     O1763   2.515       .  S
Zr1482     O2047   2.356   1_544  S
Zr1482     O2048   2.325   1_544  S
O1483     Zr1762   2.485   1_655  S
O1483      H1499   0.990       .  S
O1484      H1498   0.984       .  S
Zr1485     O2014   2.475       .  S
Zr1485     O2025   2.336       .  S
Zr1485     O2050   2.434   1_556  S
Zr1486     O2028   2.448   1_545  S
Zr1486     O2047   2.374   1_545  S
Zr1486     O2049   2.356   1_545  S
O1487     Zr2042   2.357   1_656  S
O1487     Zr2046   2.371       .  S
O1487      H1495   0.965       .  S
O1488     Zr2042   2.322   1_656  S
O1489     Zr2046   2.354       .  S
O1490     Zr2045   2.434   1_544  S
O1491      H1496   0.965       .  S
O1509     Zr1521   2.463       .  S
O1509      C1511   1.281       .  A
O1510     Zr1547   2.371       .  S
O1510      C1511   1.273       .  A
C1511      C1630   1.480       .  S
O1512     Zr1524   2.469       .  S
O1512      C1514   1.293       .  A
O1513      C1514   1.302       .  A
C1514      C1621   1.504       .  S
O1515     Zr1524   2.425       .  S
O1515      C1517   1.284       .  A
O1516     Zr2107   2.437   1_545  S
O1516      C1517   1.287       .  A
C1517      C1662   1.462       .  S
O1518     Zr1521   2.417       .  S
O1519     Zr1548   2.334       .  S
O1519      C1520   1.250   1_655  A
C1520      C1652   1.409   1_445  S
Zr1521     O2082   2.426       .  S
Zr1521     O2087   2.320       .  S
Zr1521     O2088   2.406       .  S
O1522     Zr2081   2.417       .  S
O1522      H1565   0.990       .  S
O1523      H1564   0.992       .  S
Zr1524     O1525   2.427       .  S
Zr1524     O1526   2.441       .  S
Zr1524     O1528   2.447       .  S
Zr1524     O1527   2.420   1_545  S
Zr1524     O1552   2.368       .  S
Zr1524     O1554   2.355       .  S
O1525      H1566   0.989       .  S
O1525      H1569   0.989       .  S
O1526      H1559   0.989       .  S
O1527     Zr2081   2.313       .  S
O1527     Zr2107   2.340       .  S
O1528     Zr2081   2.408   1_545  S
O1528      H1555   0.950       .  S
O1529     Zr1541   2.463       .  S
O1529      C1531   1.289       .  A
O1530     Zr2108   2.524       .  S
O1530      C1531   1.302       .  A
C1531      C1626   1.501       .  S
O1532     Zr1544   2.417       .  S
O1532      C2094   1.275       .  A
O1533     Zr1547   2.337       .  S
C1534      O2092   1.275       .  A
C1534      C1645   1.444       .  S
O1535     Zr1544   2.458   1_545  S
O1535      C1537   1.279       .  A
O1536     Zr1548   2.386       .  S
O1536      C1537   1.272       .  A
C1537      C1654   1.472       .  S
O1538     Zr1541   2.453       .  S
O1538      C1540   1.287       .  A
O1539      C1540   1.286       .  A
C1540      C1658   1.459       .  S
Zr1541     O1542   2.452       .  S
Zr1541     O1543   2.468       .  S
Zr1541     O1549   2.399       .  S
Zr1541     O1550   2.338       .  S
Zr1541     O1553   2.418       .  S
Zr1541     O1551   2.335       .  S
O1542      H1562   0.990       .  S
O1542      H1567   0.991       .  S
O1543      H1563   0.990       .  S
Zr1544     O2105   2.443       .  S
Zr1544     O2110   2.370       .  S
Zr1544     O2109   2.308       .  S
O1545     Zr2104   2.450       .  S
O1545      H1561   0.989       .  S
O1546      H1560   0.987       .  S
Zr1547     O2076   2.422       .  S
Zr1547     O2087   2.348       .  S
Zr1547     O2112   2.448       .  S
Zr1548     O2090   2.514   1_545  S
Zr1548     O2109   2.390   1_545  S
Zr1548     O2111   2.351   1_545  S
O1549     Zr2104   2.296       .  S
O1549     Zr2108   2.397       .  S
O1549      H1557   0.965       .  S
O1550     Zr2104   2.371       .  S
O1551     Zr2108   2.351       .  S
O1552     Zr2107   2.433   1_545  S
O1552      H1556   0.961       .  S
O1553      H1558   0.957       .  S
C1571      C1573   1.578       .  S
C1571      C1575   1.568       .  S
C1571      C1574   1.572       .  S
C1571      C1618   1.642       .  S
C1572      C1576   1.556       .  S
C1572      C1578   1.541       .  S
C1572      C1577   1.526       .  S
C1572      C1619   1.637       .  S
C1573      C1581   1.396       .  A
C1573      C1576   1.439       .  A
C1574      C1585   1.390       .  A
C1574      C1577   1.428       .  A
C1575      C1589   1.386       .  A
C1575      C1578   1.433       .  A
C1576      C1579   1.367       .  A
C1577      C1583   1.353       .  A
C1578      C1586   1.362       .  A
C1579      N1580   1.360       .  A
C1579      H1592   1.083       .  S
N1580      C1581   1.368       .  A
N1580      C1642   1.449       .  S
C1581      H1582   1.082       .  S
C1583      N1584   1.352       .  A
C1583      H1593   1.081       .  S
N1584      C1585   1.368       .  A
N1584      C1634   1.441       .  S
C1585      H1591   1.082       .  S
C1586      N1587   1.357       .  A
C1586      H1588   1.083       .  S
N1587      C1589   1.364       .  A
N1587      C1637   1.439       .  S
C1589      H1590   1.082       .  S
C1594      C1596   1.552       .  S
C1594      C1598   1.568       .  S
C1594      C1597   1.577       .  S
C1594      C1620   1.635       .  S
C1595      C1599   1.546       .  S
C1595      C1601   1.564       .  S
C1595      C1600   1.562       .  S
C1595      C1617   1.642       .  S
C1596      C1604   1.381       .  A
C1596      C1599   1.428       .  A
C1597      C1608   1.393       .  A
C1597      C1600   1.436       .  A
C1598      C1612   1.389       .  A
C1598      C1601   1.434       .  A
C1599      C1602   1.366       .  A
C1600      C1606   1.379       .  A
C1601      C1609   1.382       .  A
C1602      N1603   1.356       .  A
C1602      H1615   1.083       .  S
N1603      C1604   1.362       .  A
N1603      C1629   1.435       .  S
C1604      H1605   1.082       .  S
C1606      N1607   1.361       .  A
C1606      H1616   1.083       .  S
N1607      C1608   1.368       .  A
N1607      C1622   1.450       .  S
C1608      H1614   1.082       .  S
C1609      N1610   1.363       .  A
C1609      H1611   1.083       .  S
N1610      C1612   1.363       .  A
N1610      C1625   1.447       .  S
C1612      H1613   1.082       .  S
C1617      C1618   1.304       .  T
C1621      C1622   1.358       .  D
C1621      H1623   1.086       .  S
C1622      H1624   1.086       .  S
C1625      C1626   1.360       .  D
C1625      H1627   1.087       .  S
C1626      H1628   1.086       .  S
C1629      C1630   1.348       .  D
C1629      H1631   1.088       .  S
C1630      H1632   1.085       .  S
C1633      C1634   1.353       .  D
C1633      H1635   1.084       .  S
C1634      H1636   1.087       .  S
C1637      C1638   1.345       .  D
C1637      H1639   1.086       .  S
C1638      H1640   1.086       .  S
C1641      C1642   1.359       .  D
C1641      H1643   1.085       .  S
C1642      H1644   1.087       .  S
C1645      C1646   1.203       .  T
C1646      C2207   1.404       .  S
C1647      C1648   1.206       .  T
C1647      C2206   1.403       .  S
C1649      C1650   1.179   1_455  T
C1650      C2211   1.370       .  S
C1651      C1652   1.185       .  T
C1651      C2210   1.373       .  S
C1653      C1654   1.346       .  D
C1653      H1655   1.088       .  S
C1654      H1656   1.085       .  S
C1657      C1658   1.345       .  D
C1657      H1659   1.087       .  S
C1658      H1660   1.086       .  S
C1661      C1662   1.344       .  D
C1661      H1663   1.086       .  S
C1662      H1664   1.083       .  S
C1665      C1666   1.352       .  D
C1665      H1667   1.085   1_556  S
C1666      H1668   1.087       .  S
C1669      C1670   1.360   1_554  D
C1669      H1671   1.086       .  S
C1670      H1672   1.086       .  S
C1673      C1674   1.347   1_556  D
C1674      H1676   1.086       .  S
C1677      C1678   1.305       .  T
C1679      C1680   1.303       .  T
C1681      C1683   1.567   1_554  S
C1681      C1685   1.566   1_554  S
C1681      C1684   1.569   1_554  S
C1681      C1960   1.634       .  S
C1682      C1686   1.565       .  S
C1682      C1688   1.570       .  S
C1682      C1687   1.544       .  S
C1682      C1957   1.643       .  S
C1683      C1691   1.389       .  A
C1683      C1966   1.431       .  A
C1684      C1695   1.390   1_556  A
C1684      C1967   1.432       .  A
C1685      C1699   1.389   1_556  A
C1685      C1968   1.433       .  A
C1686      C1963   1.433       .  A
C1686      C1689   1.381       .  A
C1687      C1964   1.429       .  A
C1687      C1693   1.370       .  A
C1688      C1965   1.436       .  A
C1688      C1696   1.384       .  A
C1689      N1690   1.364       .  A
C1689      H1702   1.083       .  S
N1690      C1971   1.364       .  A
N1690      C1946   1.451       .  S
C1691      N1970   1.366       .  A
C1691      H1692   1.082   1_556  S
C1693      N1974   1.354       .  A
C1693      H1703   1.083       .  S
N1694      C1973   1.359       .  A
N1694      C1695   1.364   1_556  A
N1694      C2233   1.446       .  S
C1695      H1701   1.082       .  S
C1696      N1977   1.365       .  A
C1696      H1698   1.083       .  S
N1697      C1976   1.362       .  A
N1697      C1699   1.364   1_556  A
N1697      C2230   1.446       .  S
C1699      H1700   1.082       .  S
C1704      C1706   1.546       .  S
C1704      C1708   1.569       .  S
C1704      C1707   1.582       .  S
C1704      C1958   1.642       .  S
C1705      C1709   1.551       .  S
C1705      C1711   1.539       .  S
C1705      C1710   1.556       .  S
C1705      C1959   1.635       .  S
C1706      C1714   1.372       .  A
C1706      C1709   1.431       .  A
C1707      C1718   1.394       .  A
C1707      C1710   1.440       .  A
C1708      C1722   1.386       .  A
C1708      C1711   1.430       .  A
C1709      C1712   1.371       .  A
C1710      C1716   1.372       .  A
C1711      C1719   1.365       .  A
C1712      N1713   1.358       .  A
C1712      H1725   1.083       .  S
N1713      C1714   1.356       .  A
N1713      C1933   1.428       .  S
C1714      H1715   1.083       .  S
C1716      N1717   1.358       .  A
C1716      H1726   1.083       .  S
N1717      C1718   1.368       .  A
N1717      C1941   1.445       .  S
C1718      H1724   1.082       .  S
C1719      N1720   1.356       .  A
C1719      H1721   1.082       .  S
N1720      C1722   1.366       .  A
N1720      C1937   1.442       .  S
C1722      H1723   1.082       .  S
O1727     Zr1739   2.494       .  S
O1727      C1729   1.286       .  A
O1728     Zr1765   2.350       .  S
O1728      C1729   1.268       .  A
C1729      C1921   1.484       .  S
O1730     Zr1742   2.411       .  S
O1730      C1732   1.281       .  A
O1731      C1732   1.290       .  A
C1732      C1913   1.469       .  S
O1733     Zr1742   2.425       .  S
O1733      C1735   1.285       .  A
O1734      C1735   1.289       .  A
C1735      C1954   1.487       .  S
O1736     Zr1739   2.435       .  S
O1737     Zr1766   2.400       .  S
O1737      C1738   1.273       .  A
C1738      C1928   1.451       .  S
O1740      H1783   0.991       .  S
O1741      H1782   0.991   1_455  S
Zr1742     O1743   2.439       .  S
Zr1742     O1744   2.443       .  S
Zr1742     O1746   2.420       .  S
Zr1742     O1745   2.402       .  S
Zr1742     O1770   2.425       .  S
Zr1742     O1772   2.412       .  S
O1743      H1784   0.990       .  S
O1743      H1787   0.990       .  S
O1744      H1777   0.990       .  S
O1746      H1773   0.963       .  S
O1747     Zr1759   2.440       .  S
O1747      C1749   1.284       .  A
O1748      C1749   1.288       .  A
C1749      C1918   1.472       .  S
O1750     Zr2042   2.486       .  S
O1751     Zr2045   2.411   1_554  S
C1752      C1929   1.389   1_455  S
O1753     Zr1762   2.495   1_655  S
O1753      C1755   1.294       .  A
O1754     Zr1766   2.399       .  S
O1754      C1755   1.278       .  A
C1755      C1945   1.499       .  S
O1756     Zr1759   2.443       .  S
O1756      C1758   1.288       .  A
O1757      C1758   1.304   1_455  A
C1758      C1949   1.513       .  S
Zr1759     O1760   2.420       .  S
Zr1759     O1761   2.444       .  S
Zr1759     O1767   2.407       .  S
Zr1759     O1768   2.288       .  S
Zr1759     O1771   2.395       .  S
Zr1759     O1769   2.370       .  S
O1760      H1780   0.990       .  S
O1760      H1785   0.990       .  S
O1761      H1781   0.990       .  S
Zr1762     O2030   2.544       .  S
O1763      H1779   0.989       .  S
O1764      H1778   0.985       .  S
Zr1765     O2031   2.352       .  S
O1767      H1775   0.963       .  S
O1770      H2054   0.943       .  S
O1771      H1776   0.963       .  S
H1774      O2050   0.956       .  S
O1789     Zr1801   2.476       .  S
O1789      C1791   1.283       .  A
O1790     Zr1827   2.376       .  S
O1790      C1791   1.273       .  A
C1791      C1910   1.485       .  S
O1792     Zr1804   2.433       .  S
O1792      C1794   1.284       .  A
O1793      C1794   1.295       .  A
C1794      C1901   1.494       .  S
O1795     Zr1804   2.434       .  S
O1795      C1797   1.285       .  A
O1796      C1797   1.296       .  A
C1797      C1942   1.498       .  S
O1798     Zr1801   2.425       .  S
O1799     Zr1828   2.403   1_455  S
O1799      C1800   1.247       .  A
C1800      C1932   1.387   1_455  S
O1802      H1845   0.990       .  S
O1803      H1844   0.990       .  S
Zr1804     O1805   2.439       .  S
Zr1804     O1806   2.431       .  S
Zr1804     O1808   2.422       .  S
Zr1804     O1807   2.406       .  S
Zr1804     O1832   2.450       .  S
Zr1804     O1834   2.407       .  S
O1805      H1846   0.990       .  S
O1805      H1849   0.990       .  S
O1806      H1839   0.990       .  S
O1808      H1835   0.956       .  S
O1809     Zr1821   2.465       .  S
O1809      C1811   1.289       .  A
O1810      C1811   1.306   1_545  A
C1811      C1906   1.482       .  S
O1812     Zr1824   2.406       .  S
O1813     Zr1827   2.389       .  S
C1814      C1925   1.440       .  S
O1815     Zr1824   2.468       .  S
O1815      C1817   1.280       .  A
O1816     Zr1828   2.360       .  S
O1816      C1817   1.266       .  A
C1817      C1934   1.470       .  S
O1818     Zr1821   2.449       .  S
O1818      C1820   1.284       .  A
O1819      C1820   1.283       .  A
C1820      C1938   1.473       .  S
Zr1821     O1822   2.441       .  S
Zr1821     O1823   2.449       .  S
Zr1821     O1829   2.416       .  S
Zr1821     O1830   2.334       .  S
Zr1821     O1833   2.451       .  S
Zr1821     O1831   2.399       .  S
O1822      H1842   0.990       .  S
O1822      H1847   0.990       .  S
O1823      H1843   0.990       .  S
O1825      H1841   0.990       .  S
O1826      H1840   0.989       .  S
O1829      H1837   0.965       .  S
O1832      H1836   0.966       .  S
O1833      H1838   0.966       .  S
C1851      C1853   1.563       .  S
C1851      C1855   1.565       .  S
C1851      C1854   1.560       .  S
C1851      C1898   1.632       .  S
C1852      C1856   1.550       .  S
C1852      C1858   1.546       .  S
C1852      C1857   1.545       .  S
C1852      C1899   1.630       .  S
C1853      C1861   1.381       .  A
C1853      C1856   1.434       .  A
C1854      C1865   1.383       .  A
C1854      C1857   1.430       .  A
C1855      C1869   1.385       .  A
C1855      C1858   1.431       .  A
C1856      C1859   1.368       .  A
C1857      C1863   1.366       .  A
C1858      C1866   1.367       .  A
C1859      N1860   1.358       .  A
C1859      H1872   1.083       .  S
N1860      C1861   1.364       .  A
N1860      C1922   1.440       .  S
C1861      H1862   1.081       .  S
C1863      N1864   1.360       .  A
C1863      H1873   1.083       .  S
N1864      C1865   1.361       .  A
N1864      C1914   1.441       .  S
C1865      H1871   1.082       .  S
C1866      N1867   1.361       .  A
C1866      H1868   1.082       .  S
N1867      C1869   1.364       .  A
N1867      C1917   1.446       .  S
C1869      H1870   1.082       .  S
C1874      C1876   1.567       .  S
C1874      C1878   1.571       .  S
C1874      C1877   1.576       .  S
C1874      C1900   1.641       .  S
C1875      C1879   1.544       .  S
C1875      C1881   1.554       .  S
C1875      C1880   1.557       .  S
C1875      C1897   1.633       .  S
C1876      C1884   1.386       .  A
C1876      C1879   1.430       .  A
C1877      C1888   1.393       .  A
C1877      C1880   1.432       .  A
C1878      C1892   1.391       .  A
C1878      C1881   1.432       .  A
C1879      C1882   1.368       .  A
C1880      C1886   1.376       .  A
C1881      C1889   1.374       .  A
C1882      N1883   1.356       .  A
C1882      H1895   1.083       .  S
N1883      C1884   1.367       .  A
N1883      C1909   1.442       .  S
C1884      H1885   1.081       .  S
C1886      N1887   1.366       .  A
C1886      H1896   1.081       .  S
N1887      C1888   1.369       .  A
N1887      C1902   1.463       .  S
C1888      H1894   1.082       .  S
C1889      N1890   1.359       .  A
C1889      H1891   1.083       .  S
N1890      C1892   1.367       .  A
N1890      C1905   1.449       .  S
C1892      H1893   1.082       .  S
C1897      C1898   1.298       .  T
C1899      C2180   1.297       .  T
C1900      C2179   1.304   1_554  T
C1901      C1902   1.354       .  D
C1901      H1903   1.083       .  S
C1902      H1904   1.086       .  S
C1905      C1906   1.349       .  D
C1905      H1907   1.089       .  S
C1906      H1908   1.085       .  S
C1909      C1910   1.347       .  D
C1909      H1911   1.087       .  S
C1910      H1912   1.085       .  S
C1913      C1914   1.340       .  D
C1913      H1915   1.087       .  S
C1914      H1916   1.086       .  S
C1917      C1918   1.346       .  D
C1917      H1919   1.086       .  S
C1918      H1920   1.084       .  S
C1921      C1922   1.351       .  D
C1921      H1923   1.084       .  S
C1922      H1924   1.087       .  S
C1925      C1926   1.201       .  T
C1927      C1928   1.206       .  T
C1929      C1930   1.173       .  T
C1931      C1932   1.176       .  T
C1933      C1934   1.348       .  D
C1933      H1935   1.088       .  S
C1934      H1936   1.086       .  S
C1937      C1938   1.351       .  D
C1937      H1939   1.087       .  S
C1938      H1940   1.085       .  S
C1941      C1942   1.354       .  D
C1941      H1943   1.087       .  S
C1942      H1944   1.086       .  S
C1945      C1946   1.359       .  D
C1945      H1947   1.085       .  S
C1946      H1948   1.087       .  S
C1949      C1950   1.365       .  D
C1949      H1951   1.086       .  S
C1950      N1977   1.457       .  S
C1950      H1952   1.086       .  S
C1953      N1974   1.435       .  S
C1953      C1954   1.348       .  D
C1953      H2235   1.087       .  S
C1954      H1956   1.086       .  S
H1955      C2233   1.087       .  S
C1957      C1958   1.304       .  T
C1959      C1960   1.300       .  T
C1961      C1963   1.565       .  S
C1961      C1965   1.578       .  S
C1961      C1964   1.564       .  S
C1961      C2240   1.638       .  S
C1962      C1966   1.553       .  S
C1962      C1968   1.562       .  S
C1962      C1967   1.555       .  S
C1962      C2237   1.635       .  S
C1963      C1971   1.387       .  A
C1964      C1975   1.387       .  A
C1965      C1979   1.396       .  A
C1966      C1969   1.374       .  A
C1967      C1973   1.377       .  A
C1968      C1976   1.378       .  A
C1969      N1970   1.359       .  A
C1969      H1982   1.083       .  S
N1970      C2226   1.446       .  S
C1971      H1972   1.082       .  S
C1973      H1983   1.083       .  S
N1974      C1975   1.363       .  A
C1975      H1981   1.082       .  S
C1976      H1978   1.083       .  S
N1977      C1979   1.368       .  A
C1979      H1980   1.082       .  S
C1984      C1986   1.555       .  S
C1984      C1988   1.560       .  S
C1984      C1987   1.556       .  S
C1984      C2238   1.634       .  S
C1985      C1989   1.559       .  S
C1985      C1991   1.534       .  S
C1985      C1990   1.548       .  S
C1985      C2239   1.640       .  S
C1986      C1994   1.373       .  A
C1986      C1989   1.437       .  A
C1987      C1998   1.378       .  A
C1987      C1990   1.433       .  A
C1988      C2002   1.379       .  A
C1988      C1991   1.432       .  A
C1989      C1992   1.373       .  A
C1990      C1996   1.362       .  A
C1991      C1999   1.358       .  A
C1992      N1993   1.361       .  A
C1992      H2005   1.083       .  S
N1993      C1994   1.360       .  A
N1993      C2213   1.436       .  S
C1994      H1995   1.082       .  S
C1996      N1997   1.362       .  A
C1996      H2006   1.080       .  S
N1997      C1998   1.360       .  A
N1997      C2221   1.441       .  S
C1998      H2004   1.083       .  S
C1999      N2000   1.354       .  A
C1999      H2001   1.083       .  S
N2000      C2002   1.361       .  A
N2000      C2217   1.431       .  S
C2002      H2003   1.082       .  S
O2007     Zr2019   2.530   1_565  S
O2007      C2009   1.300       .  A
O2008     Zr2045   2.397       .  S
O2008      C2009   1.279       .  A
C2009      C2201   1.514       .  S
O2010     Zr2022   2.465       .  S
O2010      C2012   1.291       .  A
O2011      C2012   1.283       .  A
C2012      C2193   1.472       .  S
O2013     Zr2022   2.474       .  S
O2013      C2015   1.291       .  A
O2014      C2015   1.290       .  A
C2015      C2234   1.492       .  S
O2016     Zr2019   2.573       .  S
O2017     Zr2046   2.404       .  S
O2017      C2018   1.271       .  A
C2018      C2208   1.454       .  S
O2020      H2063   0.991       .  S
O2021      H2062   0.991       .  S
Zr2022     O2023   2.446       .  S
Zr2022     O2024   2.434   1_556  S
Zr2022     O2026   2.364       .  S
Zr2022     O2025   2.376       .  S
Zr2022     O2050   2.447   1_556  S
Zr2022     O2052   2.413       .  S
O2023      H2064   0.989       .  S
O2023      H2067   0.990       .  S
O2024      H2057   0.990       .  S
O2026      H2053   0.971       .  S
O2027     Zr2039   2.438       .  S
O2027      C2029   1.284       .  A
O2028      C2029   1.287       .  A
C2029      C2198   1.465       .  S
C2032      C2209   1.420       .  S
O2033     Zr2042   2.499   1_656  S
O2033      C2035   1.292       .  A
O2034     Zr2046   2.384       .  S
O2034      C2035   1.274       .  A
C2035      C2225   1.495       .  S
O2036     Zr2039   2.432       .  S
O2036      C2038   1.283       .  A
O2037      C2038   1.298       .  A
C2038      C2229   1.497   1_556  S
Zr2039     O2040   2.454   1_556  S
Zr2039     O2041   2.447       .  S
Zr2039     O2047   2.415       .  S
Zr2039     O2051   2.417       .  S
Zr2039     O2049   2.350       .  S
Zr2039     O2048   2.292       .  S
O2040      H2060   0.990       .  S
O2040      H2065   0.990       .  S
O2041      H2061   0.991       .  S
O2043      H2059   0.989       .  S
O2044      H2058   0.985       .  S
O2047      H2055   0.961       .  S
O2051      H2056   0.965       .  S
O2069     Zr2081   2.489       .  S
O2069      C2071   1.286       .  A
O2070     Zr2107   2.378       .  S
O2070      C2071   1.272       .  A
C2071      C2190   1.490       .  S
O2072     Zr2084   2.487       .  S
O2072      C2074   1.297       .  A
O2073      C2074   1.300       .  A
C2074      C2181   1.505       .  S
O2075     Zr2084   2.433       .  S
O2075      C2077   1.285       .  A
O2076      C2077   1.286       .  A
C2077      C2222   1.459       .  S
O2078     Zr2081   2.426       .  S
O2079     Zr2108   2.325       .  S
O2079      C2080   1.252   1_655  A
C2080      C2212   1.408   1_455  S
O2082      H2125   0.990       .  S
O2083      H2124   0.992       .  S
Zr2084     O2085   2.427       .  S
Zr2084     O2086   2.440       .  S
Zr2084     O2088   2.446       .  S
Zr2084     O2087   2.428       .  S
Zr2084     O2112   2.386       .  S
Zr2084     O2114   2.358       .  S
O2085      H2126   0.989       .  S
O2085      H2129   0.990       .  S
O2086      H2119   0.990       .  S
O2088      H2115   0.969       .  S
O2089     Zr2101   2.462       .  S
O2089      C2091   1.288       .  A
O2090      C2091   1.299       .  A
C2091      C2186   1.502       .  S
O2092     Zr2104   2.416       .  S
O2093     Zr2107   2.342       .  S
C2094      C2205   1.440       .  S
O2095     Zr2104   2.472       .  S
O2095      C2097   1.281       .  A
O2096     Zr2108   2.379       .  S
O2096      C2097   1.271       .  A
C2097      C2214   1.475       .  S
O2098     Zr2101   2.442       .  S
O2098      C2100   1.284       .  A
O2099      C2100   1.284       .  A
C2100      C2218   1.457       .  S
Zr2101     O2102   2.455       .  S
Zr2101     O2103   2.462       .  S
Zr2101     O2109   2.395       .  S
Zr2101     O2110   2.340       .  S
Zr2101     O2113   2.420       .  S
Zr2101     O2111   2.331       .  S
O2102      H2122   0.990       .  S
O2102      H2127   0.990       .  S
O2103      H2123   0.990       .  S
O2105      H2121   0.990       .  S
O2106      H2120   0.990       .  S
O2109      H2117   0.964       .  S
O2112      H2116   0.963       .  S
O2113      H2118   0.963       .  S
C2131      C2133   1.581       .  S
C2131      C2135   1.565       .  S
C2131      C2134   1.575       .  S
C2131      C2178   1.647       .  S
C2132      C2136   1.562       .  S
C2132      C2138   1.541       .  S
C2132      C2137   1.534       .  S
C2132      C2179   1.643       .  S
C2133      C2141   1.400       .  A
C2133      C2136   1.439       .  A
C2134      C2145   1.392       .  A
C2134      C2137   1.430       .  A
C2135      C2149   1.383       .  A
C2135      C2138   1.433       .  A
C2136      C2139   1.372       .  A
C2137      C2143   1.358       .  A
C2138      C2146   1.364       .  A
C2139      N2140   1.362       .  A
C2139      H2152   1.083       .  S
N2140      C2141   1.369       .  A
N2140      C2202   1.456       .  S
C2141      H2142   1.082       .  S
C2143      N2144   1.355       .  A
C2143      H2153   1.081       .  S
N2144      C2145   1.369       .  A
N2144      C2194   1.446       .  S
C2145      H2151   1.082       .  S
C2146      N2147   1.357       .  A
C2146      H2148   1.083       .  S
N2147      C2149   1.362       .  A
N2147      C2197   1.436       .  S
C2149      H2150   1.082       .  S
C2154      C2156   1.552       .  S
C2154      C2158   1.561       .  S
C2154      C2157   1.578       .  S
C2154      C2180   1.629       .  S
C2155      C2159   1.551       .  S
C2155      C2161   1.574       .  S
C2155      C2160   1.565       .  S
C2155      C2177   1.647       .  S
C2156      C2164   1.383       .  A
C2156      C2159   1.428       .  A
C2157      C2168   1.397       .  A
C2157      C2160   1.435       .  A
C2158      C2172   1.386       .  A
C2158      C2161   1.433       .  A
C2159      C2162   1.370       .  A
C2160      C2166   1.380       .  A
C2161      C2169   1.388       .  A
C2162      N2163   1.359       .  A
C2162      H2175   1.083       .  S
N2163      C2164   1.361       .  A
N2163      C2189   1.439       .  S
C2164      H2165   1.082       .  S
C2166      N2167   1.362       .  A
C2166      H2176   1.083       .  S
N2167      C2168   1.369       .  A
N2167      C2182   1.454       .  S
C2168      H2174   1.082       .  S
C2169      N2170   1.367       .  A
C2169      H2171   1.082       .  S
N2170      C2172   1.361       .  A
N2170      C2185   1.449       .  S
C2172      H2173   1.083       .  S
C2177      C2178   1.307       .  T
C2181      C2182   1.357       .  D
C2181      H2183   1.086       .  S
C2182      H2184   1.087       .  S
C2185      C2186   1.360       .  D
C2185      H2187   1.086       .  S
C2186      H2188   1.086       .  S
C2189      C2190   1.352       .  D
C2189      H2191   1.087       .  S
C2190      H2192   1.086       .  S
C2193      C2194   1.354       .  D
C2193      H2195   1.084       .  S
C2194      H2196   1.087       .  S
C2197      C2198   1.341       .  D
C2197      H2199   1.086       .  S
C2198      H2200   1.087       .  S
C2201      C2202   1.365       .  D
C2201      H2203   1.085       .  S
C2202      H2204   1.086       .  S
C2205      C2206   1.201       .  T
C2207      C2208   1.206       .  T
C2209      C2210   1.180   1_455  T
C2211      C2212   1.183       .  T
C2213      C2214   1.349       .  D
C2213      H2215   1.088       .  S
C2214      H2216   1.085       .  S
C2217      C2218   1.343       .  D
C2217      H2219   1.087       .  S
C2218      H2220   1.085       .  S
C2221      C2222   1.342       .  D
C2221      H2223   1.087       .  S
C2222      H2224   1.081       .  S
C2225      C2226   1.355       .  D
C2225      H2227   1.085   1_556  S
C2226      H2228   1.087       .  S
C2229      C2230   1.358   1_554  D
C2229      H2231   1.086       .  S
C2230      H2232   1.087       .  S
C2233      C2234   1.351       .  D
C2234      H2236   1.086   1_556  S
C2237      C2238   1.300       .  T
C2239      C2240   1.302       .  T
