geometry optimzed in LAMMPS
_audit_creation_date              2020-11-30 
_audit_creation_method            'lammps2cif' 
_symmetry_space_group_name_H-M    'P1' 
_symmetry_Int_Tables_number       1 
_symmetry_cell_setting            triclinic 
loop_ 
_symmetry_equiv_pos_as_xyz 
  x,y,z 
_cell_length_a                    28.78629335 
_cell_length_b                    28.736642926633667 
_cell_length_c                    71.8471338020527 
_cell_angle_alpha                 89.94244299066945 
_cell_angle_beta                  90.01691229175626 
_cell_angle_gamma                 119.92886529672988 
loop_ 
_atom_site_label 
_atom_site_type_symbol 
_atom_site_fract_x 
_atom_site_fract_y 
_atom_site_fract_z 
_atom_site_charge 
C1          C  0.61887749  0.03507190  0.71183392     0.80100
N2          N  0.66683587  0.05483878  0.70301488    -0.78300
C3          C  0.71162636  0.09794238  0.70988467     0.82500
N4          N  0.70805499  0.12124076  0.72580188    -0.78200
C5          C  0.66067530  0.10227467  0.73489430     0.82600
N6          N  0.61619679  0.05910254  0.72780698    -0.79900
C7          C  0.00701414  0.23636888  0.66849999     0.80100
N8          N  0.95973072  0.21845650  0.67768677    -0.78300
C9          C  0.91416520  0.17493081  0.67147932     0.82500
N10         N  0.91627926  0.14923274  0.65599501    -0.78200
C11         C  0.96283995  0.16625408  0.64662956     0.82600
N12         N  0.00809128  0.21002317  0.65293079    -0.79900
C13         C  0.55732520  0.90856334  0.83309424     0.80100
N14         N  0.52918653  0.88293802  0.81757710    -0.78300
C15         C  0.53159728  0.84044318  0.81045718     0.82500
N16         N  0.56270401  0.82373086  0.81896934    -0.78200
C17         C  0.59113687  0.84858245  0.83444020     0.82600
N18         N  0.58833830  0.89111766  0.84142996    -0.79900
C19         C  0.74046969  0.70430294  0.87765224     0.80100
N20         N  0.76530644  0.72930986  0.89368599    -0.78300
C21         C  0.76627635  0.77478239  0.89937226     0.82500
N22         N  0.74173149  0.79528170  0.88883822    -0.78200
C23         C  0.71683570  0.77131553  0.87269486     0.82600
N24         N  0.71615033  0.72558552  0.86719026    -0.79900
C25         C  0.88093657  0.56988013  0.50190233     0.80100
N26         N  0.85420129  0.54443087  0.48608842    -0.78300
C27         C  0.85452984  0.49981788  0.47990146     0.82500
N28         N  0.88209270  0.48112125  0.48966050    -0.78200
C29         C  0.90893416  0.50585973  0.50539218     0.82600
N30         N  0.90837469  0.55034501  0.51137327    -0.79900
C31         C  0.09904889  0.44094602  0.56632037     0.80100
N32         N  0.06889535  0.45829783  0.55748416    -0.78300
C33         C  0.03770849  0.43120685  0.54276412     0.82500
N34         N  0.03663716  0.38574774  0.53687428    -0.78200
C35         C  0.06652980  0.36755931  0.54551382     0.82600
N36         N  0.09752168  0.39540629  0.56028553    -0.79900
C37         C  0.67076941  0.57026482  0.00161029     0.80100
N38         N  0.67211617  0.54636303  0.98543744    -0.78300
C39         C  0.62743718  0.50217825  0.97903423     0.82500
N40         N  0.58143175  0.48214206  0.98898540    -0.78200
C41         C  0.57934660  0.50519794  0.00514701     0.82600
N42         N  0.62417597  0.54934955  0.01133381    -0.79900
C43         C  0.28533097  0.36009011  0.04773022     0.80100
N44         N  0.28469118  0.38592131  0.06348751    -0.78300
C45         C  0.33013014  0.42917481  0.06990565     0.82500
N46         N  0.37651583  0.44620507  0.06042826    -0.78200
C47         C  0.37808748  0.42099732  0.04469793     0.82600
N48         N  0.33230513  0.37797407  0.03842375    -0.79900
C49         C  0.94844417  0.69977968  0.37940546     0.80100
N50         N  0.94695895  0.72654235  0.39476897    -0.78300
C51         C  0.99140914  0.77152215  0.40076621     0.82500
N52         N  0.03789337  0.78967561  0.39121081    -0.78200
C53         C  0.04052022  0.76371108  0.37584872     0.82600
N54         N  0.99559177  0.71858696  0.37004615    -0.79900
C55         C  0.33666909  0.89947535  0.33538746     0.80100
N56         N  0.28947317  0.88036521  0.34472236    -0.78300
C57         C  0.24416412  0.83651105  0.33847229     0.82500
N58         N  0.24640179  0.81210737  0.32264296    -0.78200
C59         C  0.29284767  0.83046152  0.31305329     0.82600
N60         N  0.33784501  0.87429143  0.31949809    -0.79900
C61         C  0.21275980  0.23266850  0.16899075     0.80100
N62         N  0.18489183  0.20693058  0.15341143    -0.78300
C63         C  0.18415612  0.16177724  0.14725653     0.82500
N64         N  0.21190412  0.14278672  0.15680524    -0.78200
C65         C  0.23986119  0.16785787  0.17236157     0.82600
N66         N  0.24024615  0.21286132  0.17829780    -0.79900
C67         C  0.42670124  0.10100648  0.23393565     0.80100
N68         N  0.39661391  0.11778116  0.22471012    -0.78300
C69         C  0.36938456  0.09248523  0.20905776     0.82500
N70         N  0.37238688  0.04958978  0.20263988    -0.78200
C71         C  0.40234606  0.03208254  0.21165503     0.82600
N72         N  0.42923401  0.05802891  0.22733141    -0.79900
C73         C  0.03902559  0.60555202  0.83344595     0.80100
N74         N  0.05758592  0.65217747  0.84307856    -0.78300
C75         C  0.10142189  0.69786092  0.83717170     0.82500
N76         N  0.12681402  0.69661546  0.82142267    -0.78200
C77         C  0.10890642  0.65060566  0.81150443     0.82600
N78         N  0.06473813  0.60520908  0.81756843    -0.79900
C79         C  0.24018117  0.99452880  0.87776819     0.80100
N80         N  0.21261278  0.99648935  0.89280593    -0.78300
C81         C  0.16718997  0.95225032  0.89867329     0.82500
N82         N  0.14931063  0.90531501  0.88933672    -0.78200
C83         C  0.17651566  0.90220524  0.87438355     0.82600
N84         N  0.22195619  0.94702068  0.86868771    -0.79900
C85         C  0.77992764  0.75724110  0.64700876     0.80100
N86         N  0.79849538  0.72952729  0.65677080    -0.78300
C87         C  0.77468020  0.70398886  0.67283284     0.82500
N88         N  0.73144464  0.70638919  0.67917023    -0.78200
C89         C  0.71221845  0.73420364  0.66967168     0.82600
N90         N  0.73669518  0.75939425  0.65353544    -0.79900
C91         C  0.91414862  0.54568466  0.71269255     0.80100
N92         N  0.88726880  0.51642784  0.72797130    -0.78300
C93         C  0.84331193  0.51756315  0.73442480     0.82500
N94         N  0.82650184  0.54815373  0.72550614    -0.78200
C95         C  0.85230064  0.57688644  0.71014420     0.82600
N96         N  0.89608647  0.57551386  0.70390331    -0.79900
C97         C  0.37342679  0.27730975  0.50153501     0.80100
N98         N  0.39909589  0.27414158  0.48610907    -0.78300
C99         C  0.44140160  0.31862591  0.47872736     0.82500
N100        N  0.45804701  0.36685066  0.48698103    -0.78200
C101        C  0.43311686  0.37114205  0.50236208     0.82600
N102        N  0.39057523  0.32615924  0.50952226    -0.79900
C103        C  0.57279689  0.66757654  0.54275470     0.80100
N104        N  0.55084910  0.62191583  0.53235866    -0.78300
C105        C  0.50634623  0.57661725  0.53834664     0.82500
N106        N  0.48429283  0.57721451  0.55499576    -0.78200
C107        C  0.50580820  0.62223025  0.56562624     0.82600
N108        N  0.55000421  0.66704655  0.55936883    -0.79900
C109        C  0.37503935  0.06451595  0.00323589     0.80100
N110        N  0.39431184  0.03670663  0.01268333    -0.78300
C111        C  0.43806949  0.03507580  0.00648101     0.82500
N112        N  0.46250738  0.06157094  0.99057139    -0.78200
C113        C  0.44379227  0.08934312  0.98083700     0.82600
N114        N  0.40000069  0.09054470  0.98729037    -0.79900
C115        C  0.58157848  0.88205145  0.04764020     0.80100
N116        N  0.56329931  0.91150858  0.03872801    -0.78300
C117        C  0.51959661  0.91298484  0.04502681     0.82500
N118        N  0.49413756  0.88460030  0.06047960    -0.78200
C119        C  0.51179794  0.85510809  0.06962937     0.82600
N120        N  0.55553565  0.85394209  0.06312678    -0.79900
C121        C  0.24302811  0.20604496  0.37810576     0.80100
N122        N  0.22254451  0.23207738  0.36829394    -0.78300
C123        C  0.17815243  0.23268204  0.37427274     0.82500
N124        N  0.15423926  0.20699769  0.39031525    -0.78200
C125        C  0.17405861  0.18088505  0.40039967     0.82600
N126        N  0.21857951  0.18065779  0.39419354    -0.79900
C127        C  0.10903764  0.41850511  0.31284079     0.80100
N128        N  0.12585001  0.38787733  0.32172862    -0.78300
C129        C  0.10028084  0.35922561  0.33712885     0.82500
N130        N  0.05726944  0.36145320  0.34367978    -0.78200
C131        C  0.03977705  0.39197411  0.33506699     0.82600
N132        N  0.06581868  0.42031977  0.31959881    -0.79900
C133        C  0.90997531  0.32997127  0.21149549     0.80100
N134        N  0.89191070  0.28255310  0.20239132    -0.78300
C135        C  0.84759086  0.23726145  0.20832723     0.82500
N136        N  0.82125965  0.23976868  0.22361753    -0.78200
C137        C  0.83860848  0.28655088  0.23297482     0.82600
N138        N  0.88318934  0.33147674  0.22687123    -0.79900
C139        C  0.70436191  0.94221614  0.16581950     0.80100
N140        N  0.72258723  0.98944524  0.17505204    -0.78300
C141        C  0.76814335  0.03423876  0.16956401     0.82500
N142        N  0.79538991  0.03134755  0.15461463    -0.78200
C143        C  0.77779154  0.98459907  0.14520511     0.82600
N144        N  0.73222196  0.94031960  0.15089449    -0.79900
C145        C  0.52246570  0.64881535  0.31335202     0.80100
N146        N  0.55342413  0.69570797  0.32236631    -0.78300
C147        C  0.58120347  0.69759544  0.33784482     0.82500
N148        N  0.57779789  0.65162394  0.34432068    -0.78200
C149        C  0.54691765  0.60409411  0.33551132     0.82600
N150        N  0.51941105  0.60309452  0.31999957    -0.79900
C151        C  0.73253768  0.99258731  0.37833281     0.80100
N152        N  0.75974629  0.99493419  0.39411110    -0.78300
C153        C  0.76205499  0.95132499  0.40020650     0.82500
N154        N  0.73657863  0.90500916  0.39031718    -0.78200
C155        C  0.70935218  0.90193893  0.37451435     0.82600
N156        N  0.70743832  0.94586673  0.36866235    -0.79900
C157        C  0.40170548  0.33032724  0.71325252     0.80100
N158        N  0.42628716  0.33048263  0.72941315    -0.78300
C159        C  0.42433611  0.28503815  0.73582403     0.82500
N160        N  0.39734181  0.23901922  0.72585751    -0.78200
C161        C  0.37228099  0.23789075  0.70972594     0.82600
N162        N  0.37460926  0.28370754  0.70354630    -0.79900
C163        C  0.21439256  0.94147035  0.66891956     0.80100
N164        N  0.18744759  0.94024632  0.65317845    -0.78300
C165        C  0.18884785  0.98549880  0.64677270     0.82500
N166        N  0.21812133  0.03233778  0.65611031    -0.78200
C167        C  0.24576760  0.03450890  0.67170497     0.82600
N168        N  0.24355528  0.98887658  0.67800514    -0.79900
C169        C  0.66719472  0.05292161  0.49942713     0.80100
N170        N  0.61974220  0.02391256  0.50844342    -0.78300
C171        C  0.57442628  0.02161103  0.50189324     0.82500
N172        N  0.57689365  0.04853840  0.48609691    -0.78200
C173        C  0.62379112  0.07756058  0.47684677     0.82600
N174        N  0.66880070  0.07958483  0.48360929    -0.79900
C175        C  0.28009288  0.87392861  0.54368221     0.80100
N176        N  0.27824389  0.84644668  0.55937884    -0.78300
C177        C  0.32272944  0.84602776  0.56555249     0.82500
N178        N  0.36909635  0.87346969  0.55587250    -0.78200
C179        C  0.37168472  0.90099480  0.54021947     0.82600
N180        N  0.32705285  0.90112138  0.53425945    -0.79900
C181        C  0.61765407  0.54495154  0.21356771     0.80100
N182        N  0.61676281  0.51690240  0.22887710    -0.78300
C183        C  0.66145409  0.51654849  0.23464251     0.82500
N184        N  0.70764552  0.54497242  0.22492757    -0.78200
C185        C  0.70956171  0.57350838  0.20959690     0.82600
N186        N  0.66435813  0.57331119  0.20401413    -0.79900
C187        C  0.00220623  0.72074151  0.16614583     0.80100
N188        N  0.95561787  0.69397673  0.17578547    -0.78300
C189        C  0.91068724  0.69370642  0.16986675     0.82500
N190        N  0.91278106  0.72068305  0.15405414    -0.78200
C191        C  0.95900213  0.74755939  0.14416661     0.82600
N192        N  0.00342367  0.74726065  0.15032989    -0.79900
C193        C  0.88371124  0.27494990  0.00210115     0.80100
N194        N  0.85810476  0.27445373  0.98611314    -0.78300
C195        C  0.85904826  0.31962896  0.97986394     0.82500
N196        N  0.88610404  0.36557127  0.98980599    -0.78200
C197        C  0.91218479  0.36708001  0.00570869     0.82600
N198        N  0.91088338  0.32163324  0.01176673    -0.79900
C199        C  0.06541017  0.66264683  0.04701079     0.80100
N200        N  0.09355991  0.66399815  0.06243443    -0.78300
C201        C  0.09146669  0.61849019  0.06891787     0.82500
N202        N  0.06120936  0.57166414  0.05977062    -0.78200
C203        C  0.03296797  0.56947138  0.04438309     0.82600
N204        N  0.03519331  0.61509993  0.03809363    -0.79900
C205        C  0.33769015  0.39960965  0.83605239     0.80100
N206        N  0.33839467  0.42428701  0.81977754    -0.78300
C207        C  0.29346443  0.42345047  0.81334122     0.82500
N208        N  0.24752568  0.39749200  0.82342540    -0.78200
C209        C  0.24587133  0.37252275  0.83968192     0.82600
N210        N  0.29112874  0.37376390  0.84584197    -0.79900
C211        C  0.94689263  0.20922991  0.87792964     0.80100
N212        N  0.99525351  0.24170970  0.86982897    -0.78300
C213        C  0.04082770  0.24515489  0.87676491     0.82500
N214        N  0.03755795  0.21571308  0.89200756    -0.78200
C215        C  0.98978203  0.18321545  0.90036903     0.82600
N216        N  0.94468052  0.18030383  0.89324333    -0.79900
O217        O  0.69328331  0.24355316  0.80942026    -0.80300
O218        O  0.47029696  0.21649132  0.87248062    -0.81900
O219        O  0.55747478  0.13086913  0.84331570    -0.78900
O220        O  0.52887245  0.24350319  0.81026306    -0.77300
O221        O  0.56853042  0.33505022  0.80956225    -0.79000
O222        O  0.60702463  0.13704868  0.86897251    -0.80000
O223        O  0.47475602  0.17214799  0.84680439    -0.81300
O224        O  0.60204528  0.19193275  0.80944260    -0.81600
Eu225      Eu  0.56844663  0.21932531  0.83612605     2.39200
O226        O  0.56037218  0.29255966  0.84644072    -0.89100
O227        O  0.65002710  0.22888679  0.84656420    -0.92700
C228        C  0.64867392  0.20583676  0.80268251     1.02000
C229        C  0.44906468  0.17758932  0.86059263     1.01800
C230        C  0.57624194  0.11077721  0.85522646     1.01700
C231        C  0.53559776  0.28781843  0.80324554     0.99600
H232        H  0.54168855  0.18643407  0.87359619     0.29400
O233        O  0.56994444  0.22017620  0.86880800    -1.01500
H234        H  0.63871083  0.29952869  0.81100657     0.29400
O235        O  0.63954936  0.30032458  0.82445114    -1.04000
O236        O  0.58853027  0.35811417  0.90483763    -0.81300
O237        O  0.81008457  0.38538473  0.84037799    -0.80800
O238        O  0.58992745  0.19513935  0.90607787    -0.79200
O239        O  0.55711191  0.38897362  0.84214550    -0.82600
O240        O  0.69461562  0.40993537  0.80836668    -0.80400
O241        O  0.72681760  0.21578865  0.87168838    -0.79100
O242        O  0.75265957  0.35806596  0.90499403    -0.80600
O243        O  0.72935566  0.47360092  0.87151362    -0.82500
O244        O  0.71263670  0.26663964  0.90562496    -0.79300
O245        O  0.68055433  0.46862072  0.84573812    -0.81900
O246        O  0.53757413  0.23426126  0.90626977    -0.77700
O247        O  0.76800506  0.26185331  0.84517375    -0.77700
O248        O  0.74377225  0.36739182  0.80745559    -0.77400
O249        O  0.51353678  0.33999919  0.86793110    -0.80800
O250        O  0.67994924  0.40945328  0.90478037    -0.80300
O251        O  0.80710455  0.42999629  0.86621440    -0.78600
Eu252      Eu  0.56052371  0.29295555  0.87905870     2.39800
Eu253      Eu  0.72085519  0.30914859  0.83490187     2.39600
Eu254      Eu  0.65197768  0.23084780  0.87922820     2.38400
Eu255      Eu  0.63226035  0.37391098  0.83520904     2.39900
Eu256      Eu  0.71469976  0.38351499  0.87835089     2.39800
O257        O  0.71335415  0.38250528  0.84564429    -0.93000
O258        O  0.64254735  0.30307447  0.88970857    -0.91900
C259        C  0.63342209  0.39572854  0.91150962     1.02200
C260        C  0.83173532  0.42438236  0.85209695     1.00900
C261        C  0.55268906  0.20244203  0.91314200     1.00300
C262        C  0.51877948  0.37150525  0.85421012     1.02300
C263        C  0.73026275  0.40080217  0.80091053     1.01200
C264        C  0.76378342  0.23158290  0.85914376     1.00000
C265        C  0.74532726  0.31347494  0.91216742     1.00100
C266        C  0.71185589  0.49464304  0.85948549     1.02700
H267        H  0.75797815  0.31708557  0.87203469     0.30100
O268        O  0.72384529  0.31159782  0.86768541    -1.05200
H269        H  0.62751003  0.40255967  0.87236512     0.32100
O270        O  0.63246433  0.37364323  0.86789066    -1.07700
O271        O  0.86564446  0.91652105  0.97517224    -0.80300
O272        O  0.06132558  0.88323637  0.03740426    -0.81900
O273        O  0.02382980  0.91107428  0.97360142    -0.78900
O274        O  0.89013012  0.79700823  0.00824001    -0.77300
O275        O  0.84745470  0.80260516  0.03420568    -0.79000
O276        O  0.07722425  0.00246182  0.97377329    -0.80000
O277        O  0.01161154  0.83918634  0.01186079    -0.81300
O278        O  0.90462754  0.86408077  0.97477673    -0.81600
Eu279      Eu  0.96518153  0.88671653  0.00115416     2.39200
O280        O  0.96641712  0.88680992  0.03375607    -0.89100
O281        O  0.97460465  0.96840204  0.99082185    -0.92700
C282        C  0.87289992  0.87933347  0.96803018     1.02000
C283        C  0.04294119  0.84439017  0.02555950     1.01800
C284        C  0.06071147  0.95574324  0.96655347     1.01700
C285        C  0.85220162  0.77643240  0.02043159     0.99600
H286        H  0.07594799  0.95254795  0.00695311     0.29400
O287        O  0.04743788  0.95780938  0.01163468    -1.01500
H288        H  0.85940015  0.86851314  0.00760143     0.29400
O289        O  0.89347099  0.89686700  0.01207937    -1.04000
O290        O  0.08391521  0.01998355  0.07143192    -0.81300
O291        O  0.88994251  0.05476222  0.00944730    -0.80800
O292        O  0.14724733  0.05612063  0.00802238    -0.79200
O293        O  0.92061324  0.85663950  0.07026777    -0.82600
O294        O  0.80569060  0.88345032  0.03891681    -0.80400
O295        O  0.02992151  0.07622052  0.97458336    -0.79100
O296        O  0.06343786  0.13754694  0.03827237    -0.80600
O297        O  0.92386669  0.02447593  0.07120765    -0.82500
O298        O  0.10536497  0.13310591  0.01192965    -0.79300
O299        O  0.87282747  0.93301846  0.07164510    -0.81900
O300        O  0.14182935  0.00872156  0.03427063    -0.77700
O301        O  0.93864561  0.03731596  0.97464441    -0.77700
O302        O  0.81045386  0.93280158  0.01332031    -0.77400
O303        O  0.01188899  0.89576577  0.07053519    -0.80800
O304        O  0.04463867  0.07209702  0.07173328    -0.80300
O305        O  0.93914187  0.09739985  0.03524010    -0.78600
Eu306      Eu  0.04788525  0.95880784  0.04444773     2.39800
Eu307      Eu  0.90343827  0.97882716  0.00175842     2.39600
Eu308      Eu  0.05668149  0.03972495  0.00101834     2.38400
Eu309      Eu  0.89506240  0.89635293  0.04472487     2.39900
Eu310      Eu  0.98580557  0.04941403  0.04478504     2.39800
O311        O  0.90402818  0.97808271  0.03435321    -0.93000
O312        O  0.05735118  0.03997972  0.03368242    -0.91900
C313        C  0.07612734  0.05676383  0.07864425     1.02200
C314        C  0.90766290  0.09274379  0.02169132     1.00900
C315        C  0.16816979  0.04002911  0.02058445     1.00300
C316        C  0.96493533  0.86305921  0.07710323     1.02300
C317        C  0.78485600  0.90171759  0.02716557     1.01200
C318        C  0.98525317  0.06871613  0.96761129     1.00000
C319        C  0.10153729  0.15840113  0.02615420     1.00100
C320        C  0.88748008  0.97987952  0.07839306     1.02700
H321        H  0.99142621  0.08482360  0.00760035     0.30100
O322        O  0.98596419  0.05073834  0.01207390    -1.05200
H323        H  0.97637685  0.96743212  0.06903977     0.32100
O324        O  0.97626931  0.96791184  0.05559787    -1.07700
O325        O  0.75014042  0.35119158  0.40539991    -0.80300
O326        O  0.55778299  0.38677241  0.34181957    -0.81900
O327        O  0.72949601  0.47005113  0.37252620    -0.78900
O328        O  0.58516292  0.35358595  0.40419225    -0.77300
O329        O  0.53282769  0.26218846  0.40444736    -0.79000
O330        O  0.77286207  0.46545550  0.34658624    -0.80000
O331        O  0.60522995  0.42843832  0.36803596    -0.81300
O332        O  0.71017747  0.40270544  0.40575408    -0.81600
Eu333      Eu  0.65151730  0.38083114  0.37870353     2.39200
O334        O  0.57081982  0.30999177  0.36739027    -0.89100
O335        O  0.72392841  0.37169122  0.36815058    -0.92700
C336        C  0.74236372  0.38807011  0.41256151     1.02000
C337        C  0.57467348  0.42420940  0.35420491     1.01800
C338        C  0.76810795  0.49106691  0.36053525     1.01700
C339        C  0.54712078  0.30918688  0.41105419     0.99600
H340        H  0.65964418  0.41681389  0.34148954     0.29400
O341        O  0.65371178  0.38263670  0.34597620    -1.01500
H342        H  0.64010686  0.29791455  0.40282530     0.29400
O343        O  0.64074384  0.29863826  0.38939616    -1.04000
O344        O  0.53383974  0.24983104  0.30798786    -0.81300
O345        O  0.72332155  0.21174997  0.37167602    -0.80800
O346        O  0.70129176  0.40929638  0.30869076    -0.79200
O347        O  0.47169979  0.21760652  0.37114707    -0.82600
O348        O  0.58494780  0.18807474  0.40365949    -0.80400
O349        O  0.81453875  0.38554948  0.34249788    -0.79100
O350        O  0.69499547  0.24590244  0.30780118    -0.80600
O351        O  0.55658543  0.12895573  0.34097904    -0.82500
O352        O  0.74915528  0.33712414  0.30854309    -0.79300
O353        O  0.51335932  0.13380515  0.36692790    -0.81900
O354        O  0.61009132  0.37010450  0.30805694    -0.77700
O355        O  0.80674270  0.33517655  0.36817164    -0.77700
O356        O  0.67618864  0.22678939  0.40423165    -0.77400
O357        O  0.47844492  0.26745717  0.34546523    -0.80800
O358        O  0.57308703  0.19771748  0.30755831    -0.80300
O359        O  0.67606005  0.16985679  0.34544344    -0.78600
Eu360      Eu  0.57190696  0.31138571  0.33478752     2.39800
Eu361      Eu  0.71287377  0.28953327  0.37848007     2.39600
Eu362      Eu  0.72516827  0.37213518  0.33549080     2.38400
Eu363      Eu  0.55967190  0.22762152  0.37788708     2.39900
Eu364      Eu  0.63209424  0.21920713  0.33441858     2.39800
O365        O  0.63161227  0.21887141  0.36706592    -0.93000
O366        O  0.64367661  0.30175655  0.32414470    -0.91900
C367        C  0.54113546  0.21270057  0.30081994     1.02200
C368        C  0.70567462  0.17368773  0.35952600     1.00900
C369        C  0.65705262  0.40166956  0.30137255     1.00300
C370        C  0.45198722  0.23667255  0.35922241     1.02300
C371        C  0.62909301  0.19416677  0.41057727     1.01200
C372        C  0.83382730  0.36651172  0.35460418     1.00000
C373        C  0.73321644  0.29069770  0.30121806     1.00100
C374        C  0.51853236  0.10782412  0.35314155     1.02700
H375        H  0.74196410  0.28339348  0.34122221     0.30100
O376        O  0.71373340  0.28921248  0.34574596    -0.94400
H377        H  0.52593522  0.20074160  0.34042182     0.32100
O378        O  0.55978668  0.22872599  0.34513604    -1.07700
O379        O  0.39828309  0.80895300  0.70396524    -0.80300
O380        O  0.36562400  0.58074713  0.64186112    -0.81900
O381        O  0.48353348  0.72487503  0.67500187    -0.78900
O382        O  0.36640383  0.74353155  0.64049163    -0.77300
O383        O  0.27513618  0.70433560  0.64054535    -0.79000
O384        O  0.47835897  0.67692478  0.70105451    -0.80000
O385        O  0.41782494  0.67218324  0.64126782    -0.81300
O386        O  0.44112395  0.80324488  0.67804102    -0.81600
Eu387      Eu  0.39336296  0.70910837  0.66760883     2.39200
O388        O  0.31166882  0.63709201  0.65731320    -0.89100
O389        O  0.39315502  0.70967843  0.70027495    -0.92700
C390        C  0.43654189  0.82951681  0.69183439     1.02000
C391        C  0.40304120  0.62503410  0.63474374     1.01800
C392        C  0.50460801  0.70838632  0.68736541     1.01700
C393        C  0.32162650  0.73551658  0.63341609     0.99600
H394        H  0.41212672  0.62177865  0.67413399     0.29400
O395        O  0.38352496  0.62715711  0.67854713    -1.01500
H396        H  0.32711073  0.75327785  0.67351943     0.29400
O397        O  0.32189184  0.71956017  0.67822394    -1.04000
O398        O  0.22520162  0.46553260  0.67451817    -0.81300
O399        O  0.25600444  0.69277959  0.73703931    -0.80800
O400        O  0.39669173  0.55169336  0.70495031    -0.79200
O401        O  0.20515662  0.58545058  0.64087284    -0.82600
O402        O  0.22503278  0.72224526  0.67469905    -0.80400
O403        O  0.42160977  0.69257390  0.73718141    -0.79100
O404        O  0.25708454  0.52861309  0.73787686    -0.80600
O405        O  0.14107056  0.55156416  0.70513844    -0.82500
O406        O  0.34838402  0.56853835  0.73815330    -0.79300
O407        O  0.14664859  0.60079496  0.67937637    -0.81900
O408        O  0.34652307  0.50740022  0.67952012    -0.77700
O409        O  0.38193228  0.74438226  0.73748809    -0.77700
O410        O  0.27361484  0.76597656  0.70047716    -0.77400
O411        O  0.24576527  0.53453687  0.64029436    -0.80800
O412        O  0.18382734  0.47122861  0.70083370    -0.80300
O413        O  0.20385146  0.60122131  0.73724812    -0.78600
Eu414      Eu  0.30175433  0.55546310  0.66798349     2.39800
Eu415      Eu  0.32119711  0.71945952  0.71099365     2.39600
Eu416      Eu  0.38395399  0.62853222  0.71125168     2.38400
Eu417      Eu  0.23985630  0.64685095  0.66783220     2.39900
Eu418      Eu  0.23082066  0.56532543  0.71133034     2.39800
O419        O  0.24046719  0.64691938  0.70041297    -0.93000
O420        O  0.30261217  0.55590801  0.70065183    -0.91900
C421        C  0.18758343  0.44499370  0.68687252     1.02200
C422        C  0.21784576  0.64811573  0.74378625     1.00900
C423        C  0.37772119  0.51244442  0.69322052     1.00300
C424        C  0.21410972  0.54970892  0.63340998     1.02300
C425        C  0.24203480  0.76043831  0.68681263     1.01200
C426        C  0.41447164  0.72998957  0.74411826     1.00000
C427        C  0.30167038  0.53602979  0.74491246     1.00100
C428        C  0.12062132  0.56983199  0.69321173     1.02700
H429        H  0.31187931  0.63825611  0.73550440     0.30100
O430        O  0.31195002  0.63803952  0.72207774    -1.05200
H431        H  0.19552015  0.53678722  0.67395399     0.32100
O432        O  0.22935935  0.56505843  0.67856298    -1.07700
O433        O  0.36640886  0.57815162  0.14288789    -0.80300
O434        O  0.13787901  0.54851684  0.20431902    -0.81900
O435        O  0.22678514  0.46289353  0.17561200    -0.78900
O436        O  0.20267444  0.57908233  0.14184267    -0.77300
O437        O  0.24343799  0.67068457  0.14155665    -0.79000
O438        O  0.27442669  0.46844557  0.20177847    -0.80000
O439        O  0.14391331  0.50545715  0.17850401    -0.81300
O440        O  0.27505245  0.52720072  0.14229360    -0.81600
Eu441      Eu  0.23828232  0.55197705  0.16857531     2.39200
O442        O  0.22959819  0.62442487  0.17916014    -0.89100
O443        O  0.31927935  0.56088096  0.17962092    -0.92700
C444        C  0.32194039  0.54091339  0.13586692     1.02000
C445        C  0.11735133  0.51044867  0.19209541     1.01800
C446        C  0.24450413  0.44248715  0.18782138     1.01700
C447        C  0.21108662  0.62406359  0.13471228     0.99600
H448        H  0.20914884  0.51766664  0.20589700     0.29400
O449        O  0.23770673  0.55151125  0.20132781    -1.01500
H450        H  0.31089120  0.63312676  0.14446157     0.29400
O451        O  0.31055423  0.63320372  0.15789472    -1.04000
O452        O  0.25405982  0.68898471  0.23772427    -0.81300
O453        O  0.47954404  0.72017155  0.17474017    -0.80800
O454        O  0.25693354  0.52588696  0.23888341    -0.79200
O455        O  0.22472778  0.71714272  0.17438597    -0.82600
O456        O  0.36550689  0.74235702  0.14251574    -0.80400
O457        O  0.39560468  0.54823893  0.20610519    -0.79100
O458        O  0.41743613  0.68833471  0.23894263    -0.80600
O459        O  0.39773436  0.80532542  0.20546008    -0.82500
O460        O  0.37697511  0.59686595  0.23924354    -0.79300
O461        O  0.34980449  0.80016786  0.17944643    -0.81900
O462        O  0.20497481  0.56537788  0.23893441    -0.77700
O463        O  0.43830670  0.59612799  0.18007026    -0.77700
O464        O  0.41550474  0.70081275  0.14193021    -0.77400
O465        O  0.17971450  0.66845492  0.20000429    -0.80800
O466        O  0.34547594  0.74068579  0.23820654    -0.80300
O467        O  0.47451029  0.76363609  0.20057189    -0.78600
Eu468      Eu  0.22790297  0.62394437  0.21178330     2.39800
Eu469      Eu  0.39118871  0.64199678  0.16893648     2.39600
Eu470      Eu  0.31921555  0.56192735  0.21226565     2.38400
Eu471      Eu  0.30212523  0.70587481  0.16861755     2.39900
Eu472      Eu  0.38167500  0.71494417  0.21215676     2.39800
O473        O  0.38263300  0.71471216  0.17953084    -0.93000
O474        O  0.30922356  0.63374488  0.22280290    -0.91900
C475        C  0.29859104  0.72658411  0.24467640     1.02200
C476        C  0.49998052  0.75928774  0.18649328     1.00900
C477        C  0.21994965  0.53358636  0.24589412     1.00300
C478        C  0.18514633  0.69868094  0.18589729     1.02300
C479        C  0.40168180  0.73378580  0.13531671     1.01200
C480        C  0.43401953  0.56605579  0.19405484     1.00000
C481        C  0.40897932  0.64338982  0.24610271     1.00100
C482        C  0.38081327  0.82630853  0.19324967     1.02700
H483        H  0.42582726  0.64924605  0.20636768     0.30100
O484        O  0.39197196  0.64353036  0.20166619    -1.05200
H485        H  0.29464912  0.73412776  0.20557873     0.32100
O486        O  0.30002450  0.70539791  0.20123254    -1.07700
O487        O  0.91832400  0.01879920  0.57219672    -0.80300
O488        O  0.14672985  0.05602702  0.50880767    -0.81900
O489        O  0.08429111  0.02487220  0.57206839    -0.78900
O490        O  0.06001756  0.13951362  0.53878864    -0.77300
O491        O  0.01136038  0.13455461  0.51299418    -0.79000
O492        O  0.04768971  0.93354776  0.57177524    -0.80000
O493        O  0.14113804  0.09919754  0.53462722    -0.81300
O494        O  0.00947728  0.07151588  0.57207682    -0.81600
Eu495      Eu  0.04724728  0.05008673  0.54536577     2.39200
O496        O  0.04739590  0.05093651  0.51272202    -0.89100
O497        O  0.97618025  0.96808536  0.55613340    -0.92700
C498        C  0.96287527  0.05615779  0.57910533     1.02000
C499        C  0.16733455  0.09449748  0.52083020     1.01800
C500        C  0.07845316  0.98044342  0.57876040     1.01700
C501        C  0.04207937  0.16032718  0.52686297     0.99600
H502        H  0.09240417  0.98488357  0.53901033     0.29400
O503        O  0.05840066  0.97933770  0.53453554    -1.01500
H504        H  0.95896933  0.06757806  0.53945475     0.29400
O505        O  0.96496938  0.03957408  0.53474837    -1.04000
O506        O  0.03267939  0.91842518  0.47494005    -0.81300
O507        O  0.80455602  0.88275256  0.53785626    -0.80800
O508        O  0.06113438  0.88173881  0.53763970    -0.79200
O509        O  0.02995538  0.08019109  0.47586153    -0.82600
O510        O  0.88815567  0.05140911  0.50870473    -0.80400
O511        O  0.92550275  0.85951347  0.57206764    -0.79100
O512        O  0.89133720  0.79892223  0.50881487    -0.80600
O513        O  0.86721273  0.91344987  0.47539490    -0.82500
O514        O  0.93923910  0.80297059  0.53469684    -0.79300
O515        O  0.90565624  0.00482475  0.47514955    -0.81900
O516        O  0.10349323  0.93081883  0.51173349    -0.77700
O517        O  0.87126328  0.89652761  0.57193863    -0.77700
O518        O  0.84593803  0.00267778  0.53468363    -0.77400
O519        O  0.08255885  0.04139977  0.47565648    -0.80800
O520        O  0.94146157  0.86545517  0.47499360    -0.80300
O521        O  0.81009390  0.84115728  0.51159149    -0.78600
Eu522      Eu  0.05760338  0.97943141  0.50184055     2.39800
Eu523      Eu  0.89427059  0.95743028  0.54543637     2.39600
Eu524      Eu  0.98678211  0.89695925  0.54521099     2.38400
Eu525      Eu  0.96592795  0.04101917  0.50199030     2.39900
Eu526      Eu  0.90472899  0.88811126  0.50181001     2.39800
O527        O  0.89450511  0.95910068  0.51278711    -0.93000
O528        O  0.98635196  0.89745695  0.51247481    -0.91900
C529        C  0.98818718  0.88108764  0.46799179     1.02200
C530        C  0.78368044  0.84564220  0.52533798     1.00900
C531        C  0.09865761  0.89913901  0.52529787     1.00300
C532        C  0.06780742  0.07363054  0.46896031     1.02300
C533        C  0.84979765  0.03283190  0.52075990     1.01200
C534        C  0.88731126  0.86559774  0.57889449     1.00000
C535        C  0.90807829  0.77744638  0.52089372     1.00100
C536        C  0.87405502  0.95782822  0.46833310     1.02700
H537        H  0.87639955  0.85213340  0.53894978     0.30100
O538        O  0.90489982  0.88618989  0.53451012    -1.05200
H539        H  0.97630352  0.97019893  0.47756497     0.32100
O540        O  0.97619654  0.96977368  0.49099840    -1.07700
C541        C  0.93994098  0.09662614  0.94398146    -0.21500
C542        C  0.98683839  0.09784877  0.95031842    -0.09500
C543        C  0.03412860  0.12629269  0.93980561     0.29300
C544        C  0.03440647  0.15340309  0.92361599    -0.21500
C545        C  0.98768626  0.15266937  0.91737213    -0.09500
C546        C  0.94011198  0.12342489  0.92772719     0.29300
F547        F  0.89365904  0.12085337  0.92237729    -0.20100
H548        H  0.90273754  0.07500467  0.95166321     0.17700
H549        H  0.07159325  0.17499736  0.91593453     0.17700
F550        F  0.08012923  0.12756596  0.94493986    -0.20000
C551        C  0.84947202  0.18005542  0.88120776    -0.21500
C552        C  0.89749235  0.20815962  0.87107864    -0.09500
C553        C  0.89802354  0.23744982  0.85523209     0.29300
C554        C  0.85314306  0.24202591  0.85073012    -0.21500
C555        C  0.80660465  0.21744739  0.86179622    -0.09500
C556        C  0.80460263  0.18445941  0.87668402     0.29300
F557        F  0.76015587  0.15803191  0.88745773    -0.20100
H558        H  0.84701408  0.15610229  0.89320559     0.17700
H559        H  0.85592450  0.26700872  0.83900549     0.17700
F560        F  0.94231058  0.26331927  0.84436624    -0.20000
C561        C  0.25050267  0.47499011  0.77148611    -0.21500
C562        C  0.29932127  0.50558935  0.76202749    -0.09500
C563        C  0.34564283  0.50705405  0.76926755     0.29300
C564        C  0.34309260  0.47988010  0.78572821    -0.21500
C565        C  0.29457133  0.45037954  0.79545410    -0.09500
C566        C  0.24790702  0.44757546  0.78791816     0.29300
F567        F  0.19950700  0.41849978  0.79632377    -0.20100
H568        H  0.21403747  0.47252821  0.76627123     0.17700
H569        H  0.37961719  0.48244405  0.79092125     0.17700
F570        F  0.39372302  0.53465409  0.76052648    -0.20000
C571        C  0.43497351  0.42674764  0.83265482    -0.21500
C572        C  0.38630862  0.39798939  0.84240307    -0.09500
C573        C  0.38432467  0.36579144  0.85757596     0.29300
C574        C  0.42844836  0.35976710  0.86190662    -0.21500
C575        C  0.47596108  0.38579876  0.85140741    -0.09500
C576        C  0.47931316  0.42108092  0.83709688     0.29300
F577        F  0.52482918  0.44912743  0.82695805    -0.20100
H578        H  0.43851941  0.45282928  0.82119260     0.17700
H579        H  0.42440815  0.33276941  0.87311584     0.17700
F580        F  0.33919625  0.33817266  0.86790265    -0.20000
C581        C  0.15015559  0.34779720  0.84506664    -0.21500
C582        C  0.19444940  0.34228142  0.85005266    -0.09500
C583        C  0.18808176  0.30629028  0.86448245     0.29300
C584        C  0.13845681  0.27585252  0.87322113    -0.21500
C585        C  0.09374984  0.28014084  0.86784303    -0.09500
C586        C  0.10046256  0.31729373  0.85381464     0.29300
F587        F  0.05922497  0.32439057  0.84844725    -0.20100
H588        H  0.15370237  0.37556676  0.83421546     0.17700
H589        H  0.13494049  0.24790740  0.88400312     0.17700
F590        F  0.22908837  0.29887684  0.86986506    -0.20000
C591        C  0.16594219  0.66808709  0.09163486    -0.21500
C592        C  0.12200740  0.61958137  0.08569317    -0.09500
C593        C  0.10821772  0.57229352  0.09579559     0.29300
C594        C  0.13776249  0.57391762  0.11147543    -0.21500
C595        C  0.18146741  0.62254705  0.11755178    -0.09500
C596        C  0.19555408  0.66974440  0.10728269     0.29300
F597        F  0.23826397  0.71769399  0.11215453    -0.20100
H598        H  0.17789314  0.70493596  0.08403388     0.17700
H599        H  0.12568617  0.53701428  0.11905309     0.17700
F600        F  0.06530212  0.52452497  0.09089388    -0.20000
C601        C  0.03705561  0.70945086  0.02406831    -0.21500
C602        C  0.06562975  0.71175236  0.04027956    -0.09500
C603        C  0.09175294  0.76043162  0.05022980     0.29300
C604        C  0.08713624  0.80441089  0.04452321    -0.21500
C605        C  0.05583689  0.80104691  0.02896871    -0.09500
C606        C  0.03192401  0.75328207  0.01847704     0.29300
F607        F  0.00135035  0.74761673  0.00332442    -0.20100
H608        H  0.01691591  0.67293228  0.01594058     0.17700
H609        H  0.10626226  0.84046486  0.05292832     0.17700
F610        F  0.11986118  0.76527416  0.06597964    -0.20000
C611        C  0.91408891  0.22796250  0.02434077    -0.21500
C612        C  0.88396671  0.22580114  0.00858577    -0.09500
C613        C  0.85594016  0.17680702  0.99888704     0.29300
C614        C  0.86115991  0.13276578  0.00404782    -0.21500
C615        C  0.89421080  0.13604125  0.01899264    -0.09500
C616        C  0.91899283  0.18368800  0.02960092     0.29300
F617        F  0.94986372  0.18867053  0.04459845    -0.20100
H618        H  0.93533558  0.26455284  0.03238007     0.17700
H619        H  0.84071995  0.09656348  0.99576511     0.17700
F620        F  0.82459414  0.17144943  0.98401657    -0.20000
C621        C  0.80539346  0.36374165  0.93900227    -0.21500
C622        C  0.77594046  0.31547287  0.92915376    -0.09500
C623        C  0.77519284  0.26894015  0.93598884     0.29300
C624        C  0.80240511  0.27089232  0.95232259    -0.21500
C625        C  0.83115192  0.31893457  0.96233877    -0.09500
C626        C  0.83261637  0.36566026  0.95538035     0.29300
F627        F  0.85998619  0.41341592  0.96434866    -0.20100
H628        H  0.80689469  0.40017890  0.93417256     0.17700
H629        H  0.80063519  0.23432270  0.95714146     0.17700
F630        F  0.74835698  0.22120181  0.92695989    -0.20000
C631        C  0.93287024  0.46088643  0.01219310    -0.21500
C632        C  0.94226069  0.41824497  0.01602124    -0.09500
C633        C  0.98131151  0.42584531  0.02931795     0.29300
C634        C  0.00989288  0.47484863  0.03854035    -0.21500
C635        C  0.00095240  0.51769001  0.03458936    -0.09500
C636        C  0.96192164  0.51016325  0.02127447     0.29300
F637        F  0.95132152  0.54999416  0.01705519    -0.20100
H638        H  0.90291928  0.45624006  0.00209162     0.17700
H639        H  0.03999218  0.47946175  0.04857079     0.17700
F640        F  0.99338695  0.38677283  0.03304761    -0.20000
C641        C  0.09812417  0.69338884  0.19430533    -0.21500
C642        C  0.14129283  0.71019726  0.18186666    -0.09500
C643        C  0.13914731  0.73295345  0.16469750     0.29300
C644        C  0.09454548  0.73743924  0.16005705    -0.21500
C645        C  0.05061120  0.71900353  0.17218922    -0.09500
C646        C  0.05318023  0.69748385  0.18955964     0.29300
F647        F  0.01215280  0.67952149  0.20191767    -0.20100
H648        H  0.09836106  0.67561376  0.20757978     0.17700
H649        H  0.09391638  0.75394487  0.14656674     0.17700
F650        F  0.17884096  0.74872620  0.15186923    -0.20000
C651        C  0.91502703  0.77867527  0.12109950    -0.21500
C652        C  0.96053507  0.77614169  0.12671728    -0.09500
C653        C  0.00685657  0.80108807  0.11547492     0.29300
C654        C  0.00746651  0.82827631  0.09927359    -0.21500
C655        C  0.96222674  0.83148712  0.09383149    -0.09500
C656        C  0.91567669  0.80590518  0.10488997     0.29300
F657        F  0.87108355  0.80826661  0.10040744    -0.20100
H658        H  0.87873730  0.76000513  0.12936841     0.17700
H659        H  0.04376857  0.84708578  0.09099977     0.17700
F660        F  0.05186000  0.79958941  0.12002035    -0.20000
C661        C  0.70815855  0.49189746  0.25877120    -0.21500
C662        C  0.66023948  0.48638532  0.25152264    -0.09500
C663        C  0.61170331  0.45231591  0.26070930     0.29300
C664        C  0.61142343  0.42501980  0.27672406    -0.21500
C665        C  0.65928373  0.43091855  0.28413553    -0.09500
C666        C  0.70787920  0.46460612  0.27491022     0.29300
F667        F  0.75518628  0.47147724  0.28140095    -0.20100
H668        H  0.74620636  0.51778766  0.25205239     0.17700
H669        H  0.57319629  0.39932365  0.28337318     0.17700
F670        F  0.56412163  0.44490662  0.25435102    -0.20000
C671        C  0.47521978  0.52123699  0.21210418    -0.21500
C672        C  0.47845647  0.55489996  0.19735855    -0.09500
C673        C  0.52693423  0.58246102  0.18732500     0.29300
C674        C  0.57126311  0.57795515  0.19246298    -0.21500
C675        C  0.56872148  0.54597692  0.20765110    -0.09500
C676        C  0.51960216  0.51667449  0.21722472     0.29300
F677        F  0.51426951  0.48441564  0.23182156    -0.20100
H678        H  0.43864364  0.49942186  0.22010946     0.17700
H679        H  0.60814781  0.60081706  0.18471660     0.17700
F680        F  0.53273026  0.61580644  0.17301063    -0.20000
C681        C  0.80542209  0.59999306  0.20440840    -0.21500
C682        C  0.76074814  0.60464051  0.19930568    -0.09500
C683        C  0.76609979  0.63921606  0.18451539     0.29300
C684        C  0.81491674  0.66806544  0.17515064    -0.21500
C685        C  0.85953738  0.66329704  0.18023854    -0.09500
C686        C  0.85415365  0.62875797  0.19505347     0.29300
F687        F  0.89548419  0.62184916  0.20046539    -0.20100
H688        H  0.80280027  0.57368588  0.21566257     0.17700
H689        H  0.81764325  0.69434114  0.16387108     0.17700
F690        F  0.72453780  0.64571452  0.17907665    -0.20000
C691        C  0.37030476  0.82480659  0.59040314    -0.21500
C692        C  0.32183529  0.81713835  0.58282011    -0.09500
C693        C  0.27356952  0.78200019  0.59193112     0.29300
C694        C  0.27414106  0.75572325  0.60821477    -0.21500
C695        C  0.32264812  0.76374876  0.61592504    -0.09500
C696        C  0.37090478  0.79861108  0.60672355     0.29300
F697        F  0.41884546  0.80776382  0.61341351    -0.20100
H698        H  0.40825298  0.85157390  0.58377836     0.17700
H699        H  0.23611794  0.72898187  0.61480090     0.17700
F700        F  0.22559426  0.77243703  0.58513399    -0.20000
C701        C  0.19067434  0.91589950  0.51842531    -0.21500
C702        C  0.14170368  0.88558229  0.52779571    -0.09500
C703        C  0.13738992  0.84766900  0.54116134     0.29300
C704        C  0.18209577  0.84311887  0.54583691    -0.21500
C705        C  0.23196491  0.87582859  0.53727462    -0.09500
C706        C  0.23530890  0.91134523  0.52306789     0.29300
F707        F  0.28210503  0.94374363  0.51414236    -0.20100
H708        H  0.19547177  0.94540029  0.50806848     0.17700
H709        H  0.17777479  0.81462586  0.55652239     0.17700
F710        F  0.09048337  0.81592452  0.55015013    -0.20000
C711        C  0.57948041  0.10869046  0.45412586    -0.21500
C712        C  0.62518508  0.10623850  0.45955558    -0.09500
C713        C  0.67133832  0.13128798  0.44830914     0.29300
C714        C  0.67176080  0.15891200  0.43230536    -0.21500
C715        C  0.62638086  0.16220635  0.42708316    -0.09500
C716        C  0.57989079  0.13624728  0.43808744     0.29300
F717        F  0.53518691  0.13851551  0.43371268    -0.20100
H718        H  0.54324998  0.08978237  0.46242282     0.17700
H719        H  0.70798964  0.17788169  0.42399456     0.17700
F720        F  0.71614955  0.12915354  0.45259365    -0.20000
C721        C  0.71160615  0.01881812  0.52103439    -0.21500
C722        C  0.71584955  0.05299335  0.50630645    -0.09500
C723        C  0.76619585  0.08459454  0.49778828     0.29300
C724        C  0.81031320  0.08033484  0.50345125    -0.21500
C725        C  0.80537258  0.04399801  0.51748858    -0.09500
C726        C  0.75550503  0.01388095  0.52649131     0.29300
F727        F  0.74784005  0.97706232  0.53976705    -0.20100
H728        H  0.67356965  0.99389962  0.52790363     0.17700
H729        H  0.84801145  0.10413764  0.49623630     0.17700
F730        F  0.77285542  0.11840990  0.48354521    -0.20000
C731        C  0.46992140  0.93522879  0.53774081    -0.21500
C732        C  0.42310513  0.93125982  0.53010058    -0.09500
C733        C  0.42652786  0.95664075  0.51297137     0.29300
C734        C  0.47573183  0.98559712  0.50393509    -0.21500
C735        C  0.52262982  0.98995837  0.51166999    -0.09500
C736        C  0.51909401  0.96409890  0.52869388     0.29300
F737        F  0.56296767  0.96681276  0.53680037    -0.20100
H738        H  0.46880503  0.91623097  0.55088699     0.17700
H739        H  0.47688390  0.00466060  0.49079831     0.17700
F740        F  0.38259087  0.95354103  0.50478733    -0.20000
C741        C  0.25142686  0.84939189  0.69517962    -0.21500
C742        C  0.22734585  0.80287496  0.68410534    -0.09500
C743        C  0.19381063  0.80031695  0.66934342     0.29300
C744        C  0.18796164  0.84460599  0.66505720    -0.21500
C745        C  0.21516772  0.89251374  0.67531042    -0.09500
C746        C  0.24543959  0.89359795  0.69093123     0.29300
F747        F  0.27106204  0.93787072  0.70182295    -0.20100
H748        H  0.27693918  0.85266707  0.70677467     0.17700
H749        H  0.16343640  0.84180946  0.65321009     0.17700
F750        F  0.16812996  0.75589860  0.65850360    -0.20000
C751        C  0.15027487  0.94551391  0.61572333    -0.21500
C752        C  0.16061742  0.98447319  0.62937437    -0.09500
C753        C  0.14485253  0.02295711  0.62599502     0.29300
C754        C  0.11924968  0.02216038  0.60934795    -0.21500
C755        C  0.10848602  0.98289819  0.59580361    -0.09500
C756        C  0.12473302  0.94477026  0.59907399     0.29300
F757        F  0.11704684  0.90747762  0.58600524    -0.20100
H758        H  0.16271133  0.91598505  0.61780467     0.17700
H759        H  0.10661656  0.05153916  0.60724727     0.17700
F760        F  0.15266087  0.06045218  0.63898206    -0.20000
C761        C  0.36999187  0.37654410  0.69138248    -0.21500
C762        C  0.40130264  0.37940047  0.70683578    -0.09500
C763        C  0.42938534  0.42857980  0.71645191     0.29300
C764        C  0.42376940  0.47242253  0.71127399    -0.21500
C765        C  0.39001219  0.46856475  0.69647533    -0.09500
C766        C  0.36410833  0.42025034  0.68626947     0.29300
F767        F  0.33090000  0.41389816  0.67187225    -0.20100
H768        H  0.34818894  0.33965168  0.68354202     0.17700
H769        H  0.44460954  0.50896245  0.71936803     0.17700
F770        F  0.46119546  0.43433219  0.73121806    -0.20000
C771        C  0.45328459  0.23930268  0.75893768    -0.21500
C772        C  0.45077675  0.28513358  0.75356574    -0.09500
C773        C  0.47383882  0.33041953  0.76529548     0.29300
C774        C  0.50030828  0.33029227  0.78151314    -0.21500
C775        C  0.50413279  0.28510450  0.78659986    -0.09500
C776        C  0.47942668  0.23903765  0.77528801     0.29300
F777        F  0.48171298  0.19423136  0.77964229    -0.20100
H778        H  0.43561036  0.20359698  0.75034857     0.17700
H779        H  0.51802559  0.36601258  0.79010784     0.17700
F780        F  0.47094372  0.37502890  0.76127817    -0.20000
C781        C  0.27363416  0.13114251  0.67661487    -0.21500
C782        C  0.27895027  0.08654535  0.68137264    -0.09500
C783        C  0.31655695  0.09284850  0.69513952     0.29300
C784        C  0.34693655  0.14218020  0.70409221    -0.21500
C785        C  0.34109069  0.18656257  0.69948508    -0.09500
C786        C  0.30429444  0.18056523  0.68546677     0.29300
F787        F  0.29684253  0.22194206  0.68048600    -0.20100
H788        H  0.24524582  0.12783066  0.66607397     0.17700
H789        H  0.37531862  0.14555316  0.71465147     0.17700
F790        F  0.32486405  0.05184484  0.69985211    -0.20000
C791        C  0.76087010  0.09003953  0.38066616    -0.21500
C792        C  0.72855552  0.03989050  0.37221366    -0.09500
C793        C  0.69158743  0.03550847  0.35845423     0.29300
C794        C  0.68643891  0.07992417  0.35374745    -0.21500
C795        C  0.71745839  0.12957068  0.36269326    -0.09500
C796        C  0.75549980  0.13433779  0.37603642     0.29300
F797        F  0.78698877  0.18147864  0.38494597    -0.20100
H798        H  0.78999704  0.09499760  0.39116109     0.17700
H799        H  0.65635237  0.07464429  0.34359871     0.17700
F800        F  0.65857561  0.98794147  0.35004245    -0.20000
C801        C  0.79254948  0.90763071  0.42368945    -0.21500
C802        C  0.79070826  0.95335418  0.41769283    -0.09500
C803        C  0.81615465  0.00019369  0.42864394     0.29300
C804        C  0.84231913  0.00085975  0.44511038    -0.21500
C805        C  0.84428995  0.95522897  0.45108220    -0.09500
C806        C  0.81901458  0.90841042  0.44011345     0.29300
F807        F  0.82067916  0.86357931  0.44494458    -0.20100
H808        H  0.77370985  0.87096299  0.41560314     0.17700
H809        H  0.86126475  0.03754312  0.45319005     0.17700
F810        F  0.81624516  0.04570603  0.42351940    -0.20000
C811        C  0.52643270  0.46295118  0.33688043    -0.21500
C812        C  0.56077257  0.46704370  0.35151343    -0.09500
C813        C  0.58563633  0.51469101  0.36206672     0.29300
C814        C  0.57881024  0.55798804  0.35727206    -0.21500
C815        C  0.54722977  0.55509364  0.34189331    -0.09500
C816        C  0.51953845  0.50623076  0.33210727     0.29300
F817        F  0.48731153  0.50048724  0.31745903    -0.20100
H818        H  0.50615825  0.42673293  0.32859500     0.17700
H819        H  0.60010022  0.59461682  0.36528594     0.17700
F820        F  0.61875432  0.52083326  0.37647045    -0.20000
C821        C  0.45333529  0.59871902  0.28908198    -0.21500
C822        C  0.49356190  0.64788650  0.29618954    -0.09500
C823        C  0.50567611  0.69563237  0.28669241     0.29300
C824        C  0.47817059  0.69381489  0.27046255    -0.21500
C825        C  0.43781050  0.64466233  0.26336729    -0.09500
C826        C  0.42548603  0.59688639  0.27296792     0.29300
F827        F  0.38607026  0.54815693  0.26705561    -0.20100
H828        H  0.44280077  0.56137906  0.29611912     0.17700
H829        H  0.48874844  0.73115226  0.26342178     0.17700
F830        F  0.54454800  0.74426928  0.29284407    -0.20000
C831        C  0.67152010  0.80267745  0.37294267    -0.21500
C832        C  0.67932743  0.85022910  0.36450346    -0.09500
C833        C  0.65655438  0.84715074  0.34688169     0.29300
C834        C  0.62497562  0.79746586  0.33840286    -0.21500
C835        C  0.61591926  0.74975043  0.34706847    -0.09500
C836        C  0.64041156  0.75298697  0.36435367     0.29300
F837        F  0.63383289  0.70834546  0.37320467    -0.20100
H838        H  0.68874841  0.80363185  0.38643531     0.17700
H839        H  0.60768583  0.79660636  0.32493375     0.17700
F840        F  0.66481212  0.89192653  0.33768247    -0.20000
C841        C  0.85105145  0.03022625  0.12174872    -0.21500
C842        C  0.80703967  0.98272049  0.12852329    -0.09500
C843        C  0.79099342  0.93434294  0.11891362     0.29300
C844        C  0.81718433  0.93417662  0.10265419    -0.21500
C845        C  0.86052367  0.98180101  0.09566951    -0.09500
C846        C  0.87772472  0.02993675  0.10556986     0.29300
F847        F  0.92044163  0.07677407  0.09980722    -0.20100
H848        H  0.86488195  0.06804124  0.12889864     0.17700
H849        H  0.80320738  0.89627890  0.09553519     0.17700
F850        F  0.75018679  0.88686520  0.12511553    -0.20000
C851        C  0.62770742  0.89524014  0.18803855    -0.21500
C852        C  0.65413715  0.89365007  0.17180694    -0.09500
C853        C  0.63141153  0.84567333  0.16140320     0.29300
C854        C  0.58271189  0.80157515  0.16680648    -0.21500
C855        C  0.55528067  0.80378370  0.18268763    -0.09500
C856        C  0.57908394  0.85100081  0.19349769     0.29300
F857        F  0.55496507  0.85538234  0.20909349    -0.20100
H858        H  0.64425190  0.93116534  0.19649529     0.17700
H859        H  0.56579214  0.76604381  0.15813052     0.17700
F860        F  0.65511176  0.84129071  0.14570159    -0.20000
C861        C  0.83658851  0.33089409  0.26264594    -0.21500
C862        C  0.81062707  0.28787539  0.25015506    -0.09500
C863        C  0.75873235  0.24583227  0.25460825     0.29300
C864        C  0.73428809  0.24657460  0.27134022    -0.21500
C865        C  0.76048766  0.28938758  0.28388093    -0.09500
C866        C  0.81201555  0.33184041  0.27928886     0.29300
F867        F  0.83934246  0.37398905  0.29099454    -0.20100
H868        H  0.87650982  0.36370590  0.25969922     0.17700
H869        H  0.69427141  0.21396134  0.27431720     0.17700
F870        F  0.73095264  0.20433320  0.24271219    -0.20000
C871        C  0.98925018  0.37487743  0.19013432    -0.21500
C872        C  0.95979197  0.37869609  0.20509257    -0.09500
C873        C  0.97974672  0.42873631  0.21405255     0.29300
C874        C  0.02945072  0.47229203  0.20895298    -0.21500
C875        C  0.06052873  0.46738959  0.19479728    -0.09500
C876        C  0.03874836  0.41845661  0.18496151     0.29300
F877        F  0.06612945  0.41138453  0.17090630    -0.20100
H878        H  0.97487368  0.33743465  0.18268385     0.17700
H879        H  0.04443127  0.50948164  0.21662252     0.17700
F880        F  0.95224860  0.43559882  0.22810691    -0.20000
C881        C  0.83633524  0.13128859  0.17399457    -0.21500
C882        C  0.78818678  0.08592486  0.17962874    -0.09500
C883        C  0.76022662  0.09087410  0.19488529     0.29300
C884        C  0.77998290  0.13996114  0.20408465    -0.21500
C885        C  0.82797566  0.18540548  0.19839640    -0.09500
C886        C  0.85624650  0.18031022  0.18326089     0.29300
F887        F  0.90342474  0.22231327  0.17740383    -0.20100
H888        H  0.85909622  0.12899305  0.16238670     0.17700
H889        H  0.75724157  0.14222312  0.21570141     0.17700
F890        F  0.71363157  0.04856814  0.20099513    -0.20000
C891        C  0.95577583  0.34920578  0.35386416    -0.21500
C892        C  0.99022707  0.39046651  0.34172551    -0.09500
C893        C  0.97498118  0.42739010  0.33543160     0.29300
C894        C  0.92512838  0.42105767  0.34042761    -0.21500
C895        C  0.88966822  0.37815239  0.35185652    -0.09500
C896        C  0.90613348  0.34284860  0.35883810     0.29300
F897        F  0.87302161  0.29986277  0.36948705    -0.20100
H898        H  0.96607892  0.32002680  0.35895588     0.17700
H899        H  0.91369585  0.44903286  0.33493759     0.17700
F900        F  0.00761600  0.46909587  0.32422953    -0.20000
C901        C  0.14613617  0.50489136  0.26922047    -0.21500
C902        C  0.19207157  0.50393238  0.26305566    -0.09500
C903        C  0.21034905  0.47469427  0.27347267     0.29300
C904        C  0.18315320  0.44730037  0.28956257    -0.21500
C905        C  0.13720891  0.44829901  0.29572708    -0.09500
C906        C  0.11888606  0.47741592  0.28526727     0.29300
F907        F  0.07437556  0.47919259  0.29031057    -0.20100
H908        H  0.13071102  0.52670614  0.26152295     0.17700
H909        H  0.19845813  0.42533295  0.29722868     0.17700
F910        F  0.25480133  0.47287680  0.26834430    -0.20000
C911        C  0.14265607  0.10372748  0.44601708    -0.21500
C912        C  0.09622176  0.10404418  0.45197250    -0.09500
C913        C  0.07678006  0.13142714  0.44109227     0.29300
C914        C  0.10244625  0.15633117  0.42446777    -0.21500
C915        C  0.14811063  0.15479693  0.41828112    -0.09500
C916        C  0.16829573  0.12859869  0.42943682     0.29300
F917        F  0.21254609  0.12635629  0.42439349    -0.20100
H918        H  0.15918833  0.08362898  0.45412928     0.17700
H919        H  0.08598510  0.17647041  0.41634829     0.17700
F920        F  0.03228446  0.13321076  0.44617665    -0.20000
C921        C  0.36446562  0.18692945  0.37602429    -0.21500
C922        C  0.39592543  0.22432874  0.36227045    -0.09500
C923        C  0.37487631  0.25294623  0.35295332     0.29300
C924        C  0.32433587  0.24499551  0.35768339    -0.21500
C925        C  0.29389038  0.20926348  0.37200279    -0.09500
C926        C  0.31429468  0.17956023  0.38092674     0.29300
F927        F  0.28661893  0.14414212  0.39470398    -0.20100
H928        H  0.37930255  0.16419824  0.38347180     0.17700
H929        H  0.31007101  0.26866254  0.35054232     0.17700
F930        F  0.40395793  0.29073920  0.33995424    -0.20000
C931        C  0.16901018  0.33149725  0.34154564    -0.21500
C932        C  0.11905702  0.32556858  0.34642932    -0.09500
C933        C  0.08801012  0.28744934  0.36010299     0.29300
C934        C  0.10717889  0.25687842  0.36878230    -0.21500
C935        C  0.15752296  0.26345132  0.36409651    -0.09500
C936        C  0.18818897  0.30098851  0.35023192     0.29300
F937        F  0.23738283  0.30957340  0.34532379    -0.20100
H938        H  0.19394682  0.36049183  0.33111982     0.17700
H939        H  0.08242186  0.22805743  0.37928362     0.17700
F940        F  0.03897512  0.27916287  0.36509018    -0.20000
C941        C  0.70804023  0.91655609  0.02042725    -0.21500
C942        C  0.72888150  0.88930965  0.03059002    -0.09500
C943        C  0.69796776  0.85528200  0.04528301     0.29300
C944        C  0.64956846  0.85205128  0.05040720    -0.21500
C945        C  0.63041467  0.88197926  0.04092930    -0.09500
C946        C  0.65952829  0.91297897  0.02544154     0.29300
F947        F  0.64239415  0.94146536  0.01536898    -0.20100
H948        H  0.73033278  0.94265006  0.00895174     0.17700
H949        H  0.62774025  0.82689280  0.06213258     0.17700
F950        F  0.71492012  0.82613628  0.05510150    -0.20000
C951        C  0.49142808  0.78246698  0.09267125    -0.21500
C952        C  0.48331555  0.82413394  0.08639290    -0.09500
C953        C  0.44745453  0.83516727  0.09615857     0.29300
C954        C  0.42099504  0.80543495  0.11192679    -0.21500
C955        C  0.42935948  0.76398139  0.11830857    -0.09500
C956        C  0.46454450  0.75232987  0.10833009     0.29300
F957        F  0.47269054  0.71144626  0.11343638    -0.20100
H958        H  0.51816679  0.77256106  0.08529909     0.17700
H959        H  0.39417865  0.81536986  0.11922879     0.17700
F960        F  0.43846724  0.87528968  0.09077776    -0.20000
C961        C  0.47698807  0.17042259  0.93592933    -0.21500
C962        C  0.52469854  0.17226887  0.93026925    -0.09500
C963        C  0.54487730  0.14567397  0.94123733     0.29300
C964        C  0.51828297  0.11882815  0.95752552    -0.21500
C965        C  0.47092676  0.11759888  0.96331366    -0.09500
C966        C  0.45037776  0.14356944  0.95217343     0.29300
F967        F  0.40454498  0.14327152  0.95683942    -0.20100
H968        H  0.45989269  0.18984188  0.92773773     0.17700
H969        H  0.53527038  0.09927122  0.96569142     0.17700
F970        F  0.59078989  0.14622716  0.93649249    -0.20000
C971        C  0.24539186  0.02732717  0.02887883    -0.21500
C972        C  0.22526889  0.05475435  0.01840730    -0.09500
C973        C  0.25821593  0.09089046  0.00453764     0.29300
C974        C  0.30767089  0.09532230  0.00020247    -0.21500
C975        C  0.32577807  0.06442785  0.00966420    -0.09500
C976        C  0.29483807  0.03192219  0.02462361     0.29300
F977        F  0.31069698  0.00237711  0.03470461    -0.20100
H978        H  0.22162468  0.99983668  0.03984834     0.17700
H979        H  0.33106657  0.12197201  0.98899989     0.17700
F980        F  0.24218206  0.12078984  0.99471952    -0.20000
C981        C  0.50912648  0.01070700  0.01194074    -0.21500
C982        C  0.45884162  0.00423299  0.01669234    -0.09500
C983        C  0.42908525  0.96773402  0.03096026     0.29300
C984        C  0.44922347  0.93851122  0.04003724    -0.21500
C985        C  0.49938480  0.94480955  0.03520487    -0.09500
C986        C  0.52929088  0.98154781  0.02103790     0.29300
F987        F  0.57832342  0.99002446  0.01600059    -0.20100
H988        H  0.53329742  0.03867122  0.00114446     0.17700
H989        H  0.42500687  0.91045269  0.05080676     0.17700
F990        F  0.38007513  0.95925218  0.03602946    -0.20000
C991        C  0.43529749  0.57557224  0.59015920    -0.21500
C992        C  0.48157114  0.62208947  0.58394281    -0.09500
C993        C  0.50351226  0.66816338  0.59532309     0.29300
C994        C  0.47831587  0.66819162  0.61190437    -0.21500
C995        C  0.43099543  0.62234848  0.61776879    -0.09500
C996        C  0.41030894  0.57549956  0.60687127     0.29300
F997        F  0.36501014  0.53000911  0.61197899    -0.20100
H998        H  0.41766851  0.53916525  0.58193794     0.17700
H999        H  0.49592931  0.70466386  0.62010657     0.17700
F1000       F  0.54907768  0.71367710  0.59050757    -0.20000
C1001       C  0.65058468  0.71496788  0.52067676    -0.21500
C1002       C  0.62345367  0.71619818  0.53680038    -0.09500
C1003       C  0.64697233  0.76343567  0.54762862     0.29300
C1004       C  0.69765885  0.80613963  0.54319876    -0.21500
C1005       C  0.72637976  0.80357779  0.52778721    -0.09500
C1006       C  0.70125112  0.75809972  0.51612243     0.29300
F1007       F  0.72613915  0.75413382  0.50066256    -0.20100
H1008       H  0.63338383  0.67984447  0.51180566     0.17700
H1009       H  0.71509910  0.84070577  0.55233514     0.17700
F1010       F  0.62200671  0.76837718  0.56286781    -0.20000
C1011       C  0.30416663  0.18005684  0.49845532    -0.21500
C1012       C  0.32446671  0.22845478  0.50841859    -0.09500
C1013       C  0.29556838  0.22979752  0.52406564     0.29300
C1014       C  0.24595645  0.18510151  0.52864573    -0.21500
C1015       C  0.22395218  0.13794311  0.51785325    -0.09500
C1016       C  0.25480493  0.13544773  0.50303791     0.29300
F1017       F  0.23672175  0.09066724  0.49241417    -0.20100
H1018       H  0.32557479  0.17699660  0.48656179     0.17700
H1019       H  0.22381089  0.18836731  0.54026857     0.17700
F1020       F  0.31411017  0.27466332  0.53466510    -0.20000
C1021       C  0.50544378  0.36302521  0.45235935    -0.21500
C1022       C  0.46755167  0.31549914  0.46129332    -0.09500
C1023       C  0.45459197  0.26590756  0.45312317     0.29300
C1024       C  0.47975477  0.26432892  0.43667104    -0.21500
C1025       C  0.51847515  0.31192336  0.42792407    -0.09500
C1026       C  0.53033459  0.36146934  0.43586713     0.29300
F1027       F  0.56599961  0.40872573  0.42779807    -0.20100
H1028       H  0.51588417  0.40190146  0.45806935     0.17700
H1029       H  0.46924206  0.22545681  0.43093425     0.17700
F1030       F  0.41821398  0.21872275  0.46106708    -0.20000
C1031       C  0.41726955  0.43173902  0.52317168    -0.21500
C1032       C  0.45097041  0.42469597  0.51076032    -0.09500
C1033       C  0.50132254  0.46943494  0.50639445     0.29300
C1034       C  0.51795375  0.51912705  0.51481785    -0.21500
C1035       C  0.48514054  0.52557487  0.52780313    -0.09500
C1036       C  0.43381433  0.48154799  0.53151099     0.29300
F1037       F  0.39939374  0.48636306  0.54319081    -0.20100
H1038       H  0.37783863  0.39858183  0.52647058     0.17700
H1039       H  0.55754433  0.55215801  0.51161470     0.17700
F1040       F  0.53556809  0.46510905  0.49448329    -0.20000
C1041       C  0.78777235  0.50657306  0.76258705    -0.21500
C1042       C  0.81428422  0.48716296  0.75128682    -0.09500
C1043       C  0.81145922  0.43840878  0.75607600     0.29300
C1044       C  0.78398558  0.41066209  0.77213751    -0.21500
C1045       C  0.75800483  0.43039822  0.78364241    -0.09500
C1046       C  0.75981027  0.47861081  0.77853125     0.29300
F1047       F  0.73559816  0.49953444  0.78908849    -0.20100
H1048       H  0.78913115  0.54396510  0.75917843     0.17700
H1049       H  0.78250368  0.37315834  0.77543618     0.17700
F1050       F  0.83352921  0.41653506  0.74490172    -0.20000
C1051       C  0.98089259  0.51331824  0.71402422    -0.21500
C1052       C  0.96434882  0.54762679  0.70621214    -0.09500
C1053       C  0.99761238  0.58533852  0.69271373     0.29300
C1054       C  0.04676321  0.59001682  0.68791456    -0.21500
C1055       C  0.06452147  0.55759723  0.69636041    -0.09500
C1056       C  0.03024571  0.51800622  0.70916186     0.29300
F1057       F  0.04458765  0.48430748  0.71724531    -0.20100
H1058       H  0.95606460  0.48333477  0.72420468     0.17700
H1059       H  0.07204848  0.62100654  0.67809015     0.17700
F1060       F  0.98422338  0.61969621  0.68461141    -0.20000
C1061       C  0.58383139  0.69879986  0.69598986    -0.21500
C1062       C  0.56180434  0.72328857  0.68487864    -0.09500
C1063       C  0.59303168  0.75683704  0.67014350     0.29300
C1064       C  0.64282377  0.76203630  0.66586970    -0.21500
C1065       C  0.66292142  0.73412160  0.67609160    -0.09500
C1066       C  0.63356716  0.70392797  0.69169851     0.29300
F1067       F  0.65135353  0.67715092  0.70242999    -0.20100
H1068       H  0.56140890  0.67327191  0.70756346     0.17700
H1069       H  0.66472740  0.78658524  0.65404219     0.17700
F1070       F  0.57479743  0.78302025  0.65928514    -0.20000
C1071       C  0.85754155  0.79127616  0.62501411    -0.21500
C1072       C  0.80651900  0.78383148  0.62930758    -0.09500
C1073       C  0.78159866  0.80128886  0.61643455     0.29300
C1074       C  0.80795887  0.82699511  0.60003463    -0.21500
C1075       C  0.85940426  0.83545187  0.59592506    -0.09500
C1076       C  0.88369386  0.81652920  0.60849929     0.29300
F1077       F  0.93326005  0.82366243  0.60517508    -0.20100
H1078       H  0.87775125  0.77807641  0.63456836     0.17700
H1079       H  0.78776911  0.84017621  0.59045708     0.17700
F1080       F  0.73144445  0.79290620  0.61944308    -0.20000
C1081       C  0.83219228  0.66162293  0.67388691    -0.21500
C1082       C  0.79479820  0.67217416  0.68272068    -0.09500
C1083       C  0.77702190  0.65149950  0.70071672     0.29300
C1084       C  0.79589441  0.62065725  0.70944414    -0.21500
C1085       C  0.83310639  0.60993530  0.70056734    -0.09500
C1086       C  0.85116714  0.63095596  0.68262037     0.29300
F1087       F  0.88631563  0.62118766  0.67323235    -0.20100
H1088       H  0.84656744  0.67661403  0.66000612     0.17700
H1089       H  0.78150584  0.60549004  0.72330706     0.17700
F1090       F  0.74199527  0.66147222  0.71008040    -0.20000
C1091       C  0.31439285  0.08833544  0.88394982    -0.21500
C1092       C  0.29120714  0.04323292  0.87217156    -0.09500
C1093       C  0.31827467  0.04515017  0.85558743     0.29300
C1094       C  0.36817963  0.09003547  0.85146204    -0.21500
C1095       C  0.39252329  0.13412760  0.86370884    -0.09500
C1096       C  0.36418318  0.13309238  0.87986141     0.29300
F1097       F  0.38517233  0.17431481  0.89220520    -0.20100
H1098       H  0.29473636  0.08860961  0.89676010     0.17700
H1099       H  0.38847068  0.08941601  0.83885406     0.17700
F1100       F  0.29720172  0.00348879  0.84342416    -0.20000
C1101       C  0.13924717  0.99548829  0.94524219    -0.21500
C1102       C  0.08678780  0.95423570  0.94901026    -0.09500
C1103       C  0.06003158  0.91339145  0.93574291     0.29300
C1104       C  0.08610976  0.91340814  0.91929349    -0.21500
C1105       C  0.13905527  0.95426184  0.91568716    -0.09500
C1106       C  0.16515762  0.99575545  0.92882217     0.29300
F1107       F  0.21630059  0.03600914  0.92617223    -0.20100
H1108       H  0.16077833  0.02749053  0.95520024     0.17700
H1109       H  0.06468797  0.88142248  0.90932928     0.17700
F1110       F  0.00838334  0.87425245  0.93841589    -0.20000
C1111       C  0.91360842  0.51068332  0.86077970    -0.21500
C1112       C  0.88782918  0.46719902  0.84844960    -0.09500
C1113       C  0.91452159  0.46787569  0.83187322     0.29300
C1114       C  0.96445544  0.51194982  0.82754028    -0.21500
C1115       C  0.98900654  0.55663221  0.83942738    -0.09500
C1116       C  0.96349660  0.55484150  0.85640650     0.29300
F1117       F  0.98585352  0.59607682  0.86871587    -0.20100
H1118       H  0.89448932  0.51141604  0.87367082     0.17700
H1119       H  0.98294106  0.51172433  0.81444103     0.17700
F1120       F  0.89170234  0.42721798  0.81933442    -0.20000
C1121       C  0.11075489  0.60836584  0.78111494    -0.21500
C1122       C  0.13641899  0.65062060  0.79394937    -0.09500
C1123       C  0.18833662  0.69297258  0.78969677     0.29300
C1124       C  0.21367523  0.69274506  0.77311242    -0.21500
C1125       C  0.18849913  0.65005962  0.76049383    -0.09500
C1126       C  0.13634012  0.60789592  0.76460049     0.29300
F1127       F  0.10975271  0.56625406  0.75263005    -0.20100
H1128       H  0.07066711  0.57551456  0.78381854     0.17700
H1129       H  0.25393590  0.72531524  0.77044406     0.17700
F1130       F  0.21568643  0.73397480  0.80180251    -0.20000
C1131       C  0.17360424  0.79089841  0.84491908    -0.21500
C1132       C  0.12047337  0.74923197  0.84726794    -0.09500
C1133       C  0.08602193  0.75813973  0.85875781     0.29300
C1134       C  0.10450661  0.80788565  0.86744696    -0.21500
C1135       C  0.15757183  0.84982168  0.86491498    -0.09500
C1136       C  0.19212311  0.84050531  0.85364403     0.29300
F1137       F  0.24422098  0.87877783  0.85130219    -0.20100
H1138       H  0.20121205  0.78503341  0.83635177     0.17700
H1139       H  0.07687739  0.81372925  0.87601231     0.17700
F1140       F  0.03403049  0.71956559  0.86118284    -0.20000
C1141       C  0.51917325  0.14421018  0.27589120    -0.21500
C1142       C  0.51105161  0.18448437  0.28375200    -0.09500
C1143       C  0.47424293  0.19642003  0.27515405     0.29300
C1144       C  0.44708177  0.16908110  0.25903902    -0.21500
C1145       C  0.45558583  0.12907155  0.25115716    -0.09500
C1146       C  0.49183296  0.11670546  0.25990613     0.29300
F1147       F  0.50151643  0.07835827  0.25305020    -0.20100
H1148       H  0.54695556  0.13364743  0.28210320     0.17700
H1149       H  0.41912126  0.17931579  0.25277266     0.17700
F1150       F  0.46417035  0.23428393  0.28222832    -0.20000
C1151       C  0.37034445  0.90520611  0.18489175    -0.21500
C1152       C  0.39443787  0.88306320  0.19612197    -0.09500
C1153       C  0.42623840  0.91357720  0.21128777     0.29300
C1154       C  0.43022340  0.96279635  0.21575016    -0.21500
C1155       C  0.40301722  0.98313316  0.20525455    -0.09500
C1156       C  0.37450483  0.95450078  0.18931962     0.29300
F1157       F  0.34891434  0.97284295  0.17825150    -0.20100
H1158       H  0.34614008  0.88332018  0.17301498     0.17700
H1159       H  0.45338849  0.98409492  0.22788262     0.17700
F1160       F  0.45206652  0.89531776  0.22231132    -0.20000
C1161       C  0.09479160  0.12217816  0.10446238    -0.21500
C1162       C  0.10423390  0.08319961  0.09620536    -0.09500
C1163       C  0.13932978  0.06959621  0.10518555     0.29300
C1164       C  0.16486479  0.09524562  0.12172023    -0.21500
C1165       C  0.15568782  0.13451687  0.12986366    -0.09500
C1166       C  0.11968033  0.14719098  0.12111217     0.29300
F1167       F  0.10741907  0.18291402  0.12873229    -0.20100
H1168       H  0.06747787  0.13321322  0.09814928     0.17700
H1169       H  0.19210167  0.08424513  0.12811675     0.17700
F1170       F  0.14897162  0.03138691  0.09816126    -0.20000
C1171       C  0.25614783  0.31655576  0.18812750    -0.21500
C1172       C  0.21659819  0.28388695  0.17516063    -0.09500
C1173       C  0.18320762  0.30213586  0.16773231     0.29300
C1174       C  0.19096232  0.35266378  0.17258608    -0.21500
C1175       C  0.23201045  0.38623630  0.18492464    -0.09500
C1176       C  0.26410762  0.36714087  0.19290628     0.29300
F1177       F  0.30537703  0.39834906  0.20447743    -0.20100
H1178       H  0.28264010  0.30395390  0.19411502     0.17700
H1179       H  0.16542490  0.36602877  0.16629783     0.17700
F1180       F  0.14342794  0.27172108  0.15558050    -0.20000
C1181       C  0.28084042  0.10903347  0.17348532    -0.21500
C1182       C  0.27174502  0.14769563  0.18209979    -0.09500
C1183       C  0.29437763  0.16726661  0.19973777     0.29300
C1184       C  0.32605650  0.14920328  0.20826281    -0.21500
C1185       C  0.33563579  0.11092526  0.19957326    -0.09500
C1186       C  0.31234069  0.09078637  0.18204996     0.29300
F1187       F  0.32041304  0.05408766  0.17294676    -0.20100
H1188       H  0.26413210  0.09320150  0.15990307     0.17700
H1189       H  0.34279566  0.16514807  0.22183115     0.17700
F1190       F  0.28556901  0.20336460  0.20895350    -0.20000
C1191       C  0.43342900  0.96980315  0.33136482    -0.21500
C1192       C  0.38554758  0.94947893  0.34163027    -0.09500
C1193       C  0.38462433  0.97906542  0.35715261     0.29300
C1194       C  0.42908438  0.02901519  0.36137644    -0.21500
C1195       C  0.47570608  0.05090973  0.35036905    -0.09500
C1196       C  0.47798647  0.01965738  0.33564367     0.29300
F1197       F  0.52253220  0.03768786  0.32491897    -0.20100
H1198       H  0.43613040  0.94782487  0.31957521     0.17700
H1199       H  0.42597114  0.05149856  0.37292535     0.17700
F1200       F  0.34029257  0.96102515  0.36797445    -0.20000
C1201       C  0.33905816  0.82850409  0.28377679    -0.21500
C1202       C  0.29369016  0.80417858  0.29534818    -0.09500
C1203       C  0.24916893  0.75521276  0.28958681     0.29300
C1204       C  0.25062087  0.73121417  0.27288857    -0.21500
C1205       C  0.29630462  0.75496305  0.26154436    -0.09500
C1206       C  0.34048079  0.80445915  0.26705599     0.29300
F1207       F  0.38509325  0.83002441  0.25630077    -0.20100
H1208       H  0.37365735  0.86643861  0.28760468     0.17700
H1209       H  0.21619837  0.69310818  0.26908363     0.17700
F1210       F  0.20428737  0.72951711  0.30014489    -0.20000
C1211       C  0.94502762  0.80454579  0.44579795    -0.21500
C1212       C  0.98994738  0.85376023  0.45076955    -0.09500
C1213       C  0.03500285  0.87616279  0.43898579     0.29300
C1214       C  0.03499796  0.84926889  0.42278221    -0.21500
C1215       C  0.99008110  0.79981044  0.41786076    -0.09500
C1216       C  0.94485373  0.77788226  0.42959008     0.29300
F1217       F  0.90039582  0.73037256  0.42567023    -0.20100
H1218       H  0.90969617  0.78615718  0.45456255     0.17700
H1219       H  0.07030241  0.86758670  0.41401913     0.17700
F1220       F  0.07861590  0.92453117  0.44281431    -0.20000
C1221       C  0.90078921  0.62273537  0.35712407    -0.21500
C1222       C  0.89987726  0.64909047  0.37349582    -0.09500
C1223       C  0.85275430  0.62528304  0.38436808     0.29300
C1224       C  0.80949413  0.57526860  0.37955470    -0.21500
C1225       C  0.81140532  0.54757586  0.36372041    -0.09500
C1226       C  0.85712645  0.57287148  0.35217417     0.29300
F1227       F  0.86058649  0.54911750  0.33632240    -0.20100
H1228       H  0.93582198  0.64022703  0.34822087     0.17700
H1229       H  0.77491947  0.55755227  0.38867235     0.17700
F1230       F  0.84850270  0.64915005  0.40003647    -0.20000
C1231       C  0.09771366  0.75086616  0.35254534    -0.21500
C1232       C  0.09251071  0.78312002  0.36610192    -0.09500
C1233       C  0.13782897  0.83305713  0.37050617     0.29300
C1234       C  0.18691153  0.84949864  0.36171423    -0.21500
C1235       C  0.19213070  0.81718881  0.34817975    -0.09500
C1236       C  0.14671116  0.76744266  0.34368705     0.29300
F1237       F  0.14932229  0.73410316  0.33091853    -0.20100
H1238       H  0.06387327  0.71222243  0.34886760     0.17700
H1239       H  0.22073982  0.88817888  0.36535936     0.17700
F1240       F  0.13497833  0.86671529  0.38309972    -0.20000
C1241       C  0.14378917  0.24083500  0.04589120    -0.21500
C1242       C  0.14558439  0.21399037  0.02977900    -0.09500
C1243       C  0.19220239  0.23843918  0.01870087     0.29300
C1244       C  0.23679103  0.28657507  0.02437621    -0.21500
C1245       C  0.23592760  0.31178911  0.04106079    -0.09500
C1246       C  0.18809207  0.28904889  0.05147444     0.29300
F1247       F  0.18419626  0.31207444  0.06743827    -0.20100
H1248       H  0.10853807  0.22360710  0.05469093     0.17700
H1249       H  0.27252519  0.30340873  0.01582993     0.17700
F1250       F  0.19572693  0.21520993  0.00272035    -0.20000
C1251       C  0.28211102  0.43642118  0.09773294    -0.21500
C1252       C  0.32902661  0.45767183  0.08697370    -0.09500
C1253       C  0.37402133  0.50639068  0.09262972     0.29300
C1254       C  0.37163019  0.53282488  0.10860738    -0.21500
C1255       C  0.32444983  0.51178653  0.11922155    -0.09500
C1256       C  0.27957642  0.46304184  0.11358557     0.29300
F1257       F  0.23306935  0.44055313  0.12339874    -0.20100
H1258       H  0.24692288  0.39900193  0.09388153     0.17700
H1259       H  0.40664070  0.57039478  0.11247996     0.17700
F1260       F  0.42019571  0.52934703  0.08263330    -0.20000
C1261       C  0.58424587  0.40450565  0.93855483    -0.21500
C1262       C  0.63171140  0.42494166  0.92820159    -0.09500
C1263       C  0.67741475  0.47237778  0.93431626     0.29300
C1264       C  0.67560632  0.49744657  0.95072104    -0.21500
C1265       C  0.62841659  0.47608511  0.96135875    -0.09500
C1266       C  0.58242863  0.42944324  0.95492789     0.29300
F1267       F  0.53555763  0.40693906  0.96450135    -0.20100
H1268       H  0.54843214  0.36828576  0.93421484     0.17700
H1269       H  0.71146566  0.53352716  0.95512212     0.17700
F1270       F  0.72396842  0.49483210  0.92451907    -0.20000
C1271       C  0.76840351  0.63812179  0.99915747    -0.21500
C1272       C  0.71884457  0.62011596  0.00806077    -0.09500
C1273       C  0.71555401  0.65161210  0.02248795     0.29300
C1274       C  0.76005601  0.70087609  0.02713606    -0.21500
C1275       C  0.80884179  0.72017542  0.01756344    -0.09500
C1276       C  0.81293713  0.68744087  0.00381523     0.29300
F1277       F  0.85944460  0.70351660  0.99443479    -0.20100
H1278       H  0.77257878  0.61458400  0.98821053     0.17700
H1279       H  0.75534997  0.72502533  0.03772203     0.17700
F1280       F  0.66886253  0.63645140  0.03160889    -0.20000
C1281       C  0.48050494  0.44263677  0.00742580    -0.21500
C1282       C  0.52822747  0.48282988  0.01556145    -0.09500
C1283       C  0.52607238  0.50118088  0.03351589     0.29300
C1284       C  0.47727818  0.48037138  0.04285732    -0.21500
C1285       C  0.42943713  0.44083800  0.03462065    -0.09500
C1286       C  0.43164710  0.42173990  0.01679323     0.29300
F1287       F  0.38674236  0.38359018  0.00818022    -0.20100
H1288       H  0.48066102  0.42756372  0.99363468     0.17700
H1289       H  0.47718102  0.49552448  0.05664093     0.17700
F1290       F  0.57092773  0.53904388  0.04221424    -0.20000
C1291       C  0.19445560  0.48392440  0.60752936    -0.21500
C1292       C  0.18625939  0.52377316  0.61575482    -0.09500
C1293       C  0.15138611  0.53790632  0.60690954     0.29300
C1294       C  0.12414840  0.51139862  0.59074625    -0.21500
C1295       C  0.13100172  0.47038631  0.58288259    -0.09500
C1296       C  0.16741601  0.45762928  0.59128695     0.29300
F1297       F  0.17721328  0.41991513  0.58388629    -0.20100
H1298       H  0.22169398  0.47259552  0.61371977     0.17700
H1299       H  0.09689753  0.52270157  0.58455853     0.17700
F1300       F  0.14298537  0.57700417  0.61385215    -0.20000
C1301       C  0.02852186  0.23792779  0.51944065    -0.21500
C1302       C  0.05423858  0.21638614  0.53014813    -0.09500
C1303       C  0.08655899  0.24674435  0.54521450     0.29300
C1304       C  0.09128806  0.29619121  0.54970848    -0.21500
C1305       C  0.06382379  0.31672633  0.53948930    -0.09500
C1306       C  0.03285536  0.28720733  0.52405249     0.29300
F1307       F  0.00539089  0.30484065  0.51362182    -0.20100
H1308       H  0.00315866  0.21569248  0.50782501     0.17700
H1309       H  0.11558470  0.31772432  0.56161171     0.17700
F1310       F  0.11240784  0.22819980  0.55609436    -0.20000
C1311       C  0.85663039  0.64171291  0.49779754    -0.21500
C1312       C  0.88216237  0.61972429  0.50832286    -0.09500
C1313       C  0.91040521  0.64715295  0.52450289     0.29300
C1314       C  0.91572908  0.69680356  0.52917116    -0.21500
C1315       C  0.89330797  0.72050597  0.51788816    -0.09500
C1316       C  0.86184175  0.69126137  0.50248615     0.29300
F1317       F  0.83767726  0.71120551  0.49140089    -0.20100
H1318       H  0.83378218  0.62139126  0.48549465     0.17700
H1319       H  0.93954904  0.71771547  0.54124392     0.17700
F1320       F  0.93467759  0.62730092  0.53556735    -0.20000
C1321       C  0.76592940  0.45868031  0.43687534    -0.21500
C1322       C  0.77183823  0.41620809  0.42977453    -0.09500
C1323       C  0.80525668  0.40158147  0.43941366     0.29300
C1324       C  0.83200887  0.42914160  0.45556396    -0.21500
C1325       C  0.82594740  0.47159017  0.46262281    -0.09500
C1326       C  0.79223406  0.48583305  0.45307207     0.29300
F1327       F  0.78374539  0.52543128  0.45942563    -0.20100
H1328       H  0.74047758  0.47108747  0.42993918     0.17700
H1329       H  0.85751068  0.41690555  0.46256498     0.17700
F1330       F  0.81192178  0.36046782  0.43345779    -0.20000
C1331       C  0.97752982  0.51771442  0.52905124    -0.21500
C1332       C  0.94013075  0.48564761  0.51547489    -0.09500
C1333       C  0.93419863  0.43504111  0.51133272     0.29300
C1334       C  0.96612232  0.41792005  0.52021148    -0.21500
C1335       C  0.00423826  0.45033580  0.53355099    -0.09500
C1336       C  0.00929280  0.50048303  0.53801361     0.29300
F1337       F  0.04538083  0.53357157  0.55079808    -0.20100
H1338       H  0.98300902  0.55677949  0.53257334     0.17700
H1339       H  0.96062163  0.37888310  0.51664500     0.17700
F1340       F  0.89726635  0.40157158  0.49883489    -0.20000
C1341       C  0.74858136  0.57613349  0.87977465    -0.21500
C1342       C  0.72552670  0.55137267  0.86271008    -0.09500
C1343       C  0.71087759  0.57934786  0.85003674     0.29300
C1344       C  0.71711979  0.62951567  0.85475917    -0.21500
C1345       C  0.73795915  0.65304024  0.87218303    -0.09500
C1346       C  0.75455987  0.62593589  0.88453125     0.29300
F1347       F  0.77459123  0.64606929  0.90161825    -0.20100
H1348       H  0.76014949  0.55596034  0.88994762     0.17700
H1349       H  0.70454216  0.64944482  0.84484272     0.17700
F1350       F  0.68928229  0.55788388  0.83324267    -0.20000
C1351       C  0.78226227  0.83919435  0.92541246    -0.21500
C1352       C  0.79291420  0.80121011  0.91704168    -0.09500
C1353       C  0.82932138  0.78900510  0.92572228     0.29300
C1354       C  0.85402335  0.81389883  0.94234781    -0.21500
C1355       C  0.84381998  0.85215736  0.95073189    -0.09500
C1356       C  0.80738531  0.86451490  0.94206512     0.29300
F1357       F  0.79610237  0.90114073  0.94952441    -0.20100
H1358       H  0.75431617  0.84936204  0.91909071     0.17700
H1359       H  0.88206104  0.80354606  0.94847446     0.17700
F1360       F  0.84257138  0.75417590  0.91794628    -0.20000
C1361       C  0.51446847  0.77787264  0.78394239    -0.21500
C1362       C  0.50170198  0.81286876  0.79340227    -0.09500
C1363       C  0.46023471  0.82039935  0.78644827     0.29300
C1364       C  0.43253640  0.79357577  0.77041534    -0.21500
C1365       C  0.44513151  0.75838982  0.76097756    -0.09500
C1366       C  0.48657402  0.75078650  0.76796428     0.29300
F1367       F  0.50055099  0.71744073  0.75941979    -0.20100
H1368       H  0.54634547  0.77137771  0.78886980     0.17700
H1369       H  0.40058849  0.80003914  0.76554160     0.17700
F1370       F  0.44533810  0.85260295  0.79528598    -0.20000
C1371       C  0.53039749  0.02506515  0.83722263    -0.21500
C1372       C  0.56464840  0.05491441  0.85189403    -0.09500
C1373       C  0.59245638  0.03337207  0.86147100     0.29300
C1374       C  0.58824302  0.98490736  0.85570537    -0.21500
C1375       C  0.55650596  0.95675448  0.84028565    -0.09500
C1376       C  0.52639729  0.97685943  0.83141042     0.29300
F1377       F  0.49446661  0.95138239  0.81661694    -0.20100
H1378       H  0.50810766  0.04009176  0.82960849     0.17700
H1379       H  0.61152050  0.97046511  0.86299796     0.17700
F1380       F  0.62597966  0.06018400  0.87579592    -0.20000
C1381       C  0.65388708  0.76349471  0.84723757    -0.21500
C1382       C  0.68805163  0.79327168  0.86190937    -0.09500
C1383       C  0.69218259  0.84283990  0.86669016     0.29300
C1384       C  0.66087857  0.86045383  0.85762433    -0.21500
C1385       C  0.62525344  0.82977050  0.84342736    -0.09500
C1386       C  0.62283916  0.78133899  0.83805968     0.29300
F1387       F  0.58963007  0.75022500  0.82427227    -0.20100
H1388       H  0.65007290  0.72551682  0.84309102     0.17700
H1389       H  0.66456348  0.89833025  0.86183630     0.17700
F1390       F  0.72620936  0.87456737  0.88019430    -0.20000
C1391       C  0.14916264  0.35612475  0.67054804    -0.21500
C1392       C  0.14384329  0.38856604  0.68406387    -0.09500
C1393       C  0.09431719  0.36830166  0.69336685     0.29300
C1394       C  0.05117577  0.31796770  0.68876217    -0.21500
C1395       C  0.05562891  0.28662400  0.67462191    -0.09500
C1396       C  0.10579226  0.30584242  0.66584277     0.29300
F1397       F  0.11300030  0.27699504  0.65236909    -0.20100
H1398       H  0.18664670  0.37030396  0.66316044     0.17700
H1399       H  0.01340587  0.30461968  0.69585256     0.17700
F1400       F  0.08612977  0.39816716  0.70617484    -0.20000
C1401       C  0.01039825  0.12279267  0.60433346    -0.21500
C1402       C  0.96167772  0.08390782  0.59633193    -0.09500
C1403       C  0.91335255  0.07238760  0.60508235     0.29300
C1404       C  0.91425416  0.09928099  0.62139154    -0.21500
C1405       C  0.96309462  0.13813940  0.62936777    -0.09500
C1406       C  0.01128444  0.14950966  0.62060394     0.29300
F1407       F  0.05956438  0.18584417  0.62777471    -0.20100
H1408       H  0.04845260  0.13264022  0.59807772     0.17700
H1409       H  0.87635526  0.08964140  0.62771829     0.17700
F1410       F  0.86517940  0.03535722  0.59798821    -0.20000
C1411       C  0.52970267  0.90519421  0.68553145    -0.21500
C1412       C  0.48024591  0.88608738  0.69469556    -0.09500
C1413       C  0.47555895  0.91956118  0.70799755     0.29300
C1414       C  0.52024792  0.96858801  0.71298989    -0.21500
C1415       C  0.57059483  0.98599326  0.70473771    -0.09500
C1416       C  0.57428290  0.95447690  0.69038327     0.29300
F1417       F  0.62137395  0.96975242  0.68150759    -0.20100
H1418       H  0.53479046  0.88086750  0.67511860     0.17700
H1419       H  0.51551901  0.99236855  0.72371014     0.17700
F1420       F  0.42814107  0.90454147  0.71657984    -0.20000
C1421       C  0.60922234  0.10739967  0.76227691    -0.21500
C1422       C  0.65790810  0.12798465  0.75251472    -0.09500
C1423       C  0.70364784  0.17311633  0.75987355     0.29300
C1424       C  0.70021751  0.19726760  0.77624391    -0.21500
C1425       C  0.65140355  0.17744379  0.78580340    -0.09500
C1426       C  0.60584888  0.13155917  0.77873716     0.29300
F1427       F  0.55794898  0.10967537  0.78766999    -0.20100
H1428       H  0.57341297  0.07245790  0.75717810     0.17700
H1429       H  0.73609050  0.23228669  0.78127168     0.17700
F1430       F  0.75198491  0.19472334  0.75129261    -0.20000
C1431       C  0.76495535  0.10198595  0.68192116    -0.21500
C1432       C  0.76382057  0.11883646  0.70016384    -0.09500
C1433       C  0.81276081  0.15535016  0.70876374     0.29300
C1434       C  0.86130544  0.17360642  0.69933432    -0.21500
C1435       C  0.86233766  0.15614950  0.68117375    -0.09500
C1436       C  0.81334501  0.12052866  0.67245893     0.29300
F1437       F  0.81167016  0.10419658  0.65462908    -0.20100
H1438       H  0.72813649  0.07463913  0.67478979     0.17700
H1439       H  0.89823841  0.20104080  0.70639431     0.17700
F1440       F  0.81424618  0.17285899  0.72639607    -0.20000
loop_ 
_geom_bond_atom_site_label_1 
_geom_bond_atom_site_label_2 
_geom_bond_distance 
_geom_bond_site_symmetry_2 
_ccdc_geom_bond_type 
C1            N2   1.359       .  A
C1            N6   1.362       .  A
C1         C1415   1.492   1_545  S
N2            C3   1.359       .  A
C3            N4   1.355       .  A
C3         C1432   1.485       .  S
N4            C5   1.357       .  A
C5            N6   1.361       .  A
C5         C1422   1.488       .  S
C7            N8   1.362   1_455  A
C7           N12   1.360       .  A
C7         C1395   1.491       .  S
N8            C9   1.359       .  A
C9           N10   1.354       .  A
C9         C1435   1.483       .  S
N10          C11   1.354       .  A
C11          N12   1.360   1_655  A
C11        C1405   1.483       .  S
C13          N14   1.359       .  A
C13          N18   1.361       .  A
C13        C1375   1.490       .  S
N14          C15   1.358       .  A
C15          N16   1.355       .  A
C15        C1362   1.480       .  S
N16          C17   1.354       .  A
C17          N18   1.361       .  A
C17        C1385   1.484       .  S
C19          N20   1.358       .  A
C19          N24   1.362       .  A
C19        C1345   1.492       .  S
N20          C21   1.356       .  A
C21          N22   1.354       .  A
C21        C1352   1.482       .  S
N22          C23   1.357       .  A
C23          N24   1.363       .  A
C23        C1382   1.485       .  S
C25          N26   1.363       .  A
C25          N30   1.358       .  A
C25        C1312   1.489       .  S
N26          C27   1.362       .  A
C27          N28   1.354       .  A
C27        C1325   1.487       .  S
N28          C29   1.354       .  A
C29          N30   1.357       .  A
C29        C1332   1.479       .  S
C31          N32   1.355       .  A
C31          N36   1.359       .  A
C31        C1295   1.484       .  S
N32          C33   1.354       .  A
C33          N34   1.359       .  A
C33        C1335   1.482       .  S
N34          C35   1.359       .  A
C35          N36   1.361       .  A
C35        C1305   1.488       .  S
C37          N38   1.361   1_554  A
C37          N42   1.358       .  A
C37        C1272   1.485       .  S
N38          C39   1.360       .  A
C39          N40   1.355       .  A
C39        C1265   1.483       .  S
N40          C41   1.354   1_556  A
C41          N42   1.356       .  A
C41        C1282   1.481       .  S
C43          N44   1.360       .  A
C43          N48   1.359       .  A
C43        C1245   1.487       .  S
N44          C45   1.359       .  A
C45          N46   1.354       .  A
C45        C1252   1.484       .  S
N46          C47   1.356       .  A
C47          N48   1.358       .  A
C47        C1285   1.481       .  S
C49          N50   1.359       .  A
C49          N54   1.362       .  A
C49        C1222   1.492       .  S
N50          C51   1.358       .  A
C51          N52   1.355   1_655  A
C51        C1215   1.485       .  S
N52          C53   1.356       .  A
C53          N54   1.362   1_455  A
C53        C1232   1.486       .  S
C55          N56   1.361       .  A
C55          N60   1.362       .  A
C55        C1192   1.493       .  S
N56          C57   1.361       .  A
C57          N58   1.355       .  A
C57        C1235   1.486       .  S
N58          C59   1.355       .  A
C59          N60   1.361       .  A
C59        C1202   1.486       .  S
C61          N62   1.361       .  A
C61          N66   1.358       .  A
C61        C1172   1.488       .  S
N62          C63   1.361       .  A
C63          N64   1.357       .  A
C63        C1165   1.486       .  S
N64          C65   1.356       .  A
C65          N66   1.357       .  A
C65        C1182   1.482       .  S
C67          N68   1.356       .  A
C67          N72   1.359       .  A
C67        C1145   1.485       .  S
N68          C69   1.356       .  A
C69          N70   1.359       .  A
C69        C1185   1.484       .  S
N70          C71   1.360       .  A
C71          N72   1.360       .  A
C71        C1155   1.490   1_545  S
C73          N74   1.359       .  A
C73          N78   1.363       .  A
C73        C1115   1.488   1_455  S
N74          C75   1.357       .  A
C75          N76   1.357       .  A
C75        C1132   1.483       .  S
N76          C77   1.358       .  A
C77          N78   1.361       .  A
C77        C1122   1.489       .  S
C79          N80   1.358       .  A
C79          N84   1.361       .  A
C79        C1092   1.492   1_565  S
N80          C81   1.358       .  A
C81          N82   1.358       .  A
C81        C1105   1.484       .  S
N82          C83   1.359       .  A
C83          N84   1.362       .  A
C83        C1135   1.486       .  S
C85          N86   1.355       .  A
C85          N90   1.360       .  A
C85        C1072   1.484       .  S
N86          C87   1.355       .  A
C87          N88   1.359       .  A
C87        C1082   1.484       .  S
N88          C89   1.361       .  A
C89          N90   1.362       .  A
C89        C1065   1.491       .  S
C91          N92   1.364       .  A
C91          N96   1.359       .  A
C91        C1052   1.493       .  S
N92          C93   1.363       .  A
C93          N94   1.357       .  A
C93        C1042   1.483       .  S
N94          C95   1.356       .  A
C95          N96   1.357       .  A
C95        C1085   1.484       .  S
C97          N98   1.360       .  A
C97         N102   1.361       .  A
C97        C1012   1.492       .  S
N98          C99   1.358       .  A
C99         N100   1.357       .  A
C99        C1022   1.487       .  S
N100        C101   1.357       .  A
C101        N102   1.362       .  A
C101       C1032   1.486       .  S
C103        N104   1.361       .  A
C103        N108   1.359       .  A
C103       C1002   1.493       .  S
N104        C105   1.362       .  A
C105        N106   1.359       .  A
C105       C1035   1.485       .  S
N106        C107   1.357       .  A
C107        N108   1.358       .  A
C107        C992   1.489       .  S
C109        N110   1.359       .  A
C109        N114   1.360   1_554  A
C109        C975   1.490       .  S
N110        C111   1.359       .  A
C111        N112   1.358   1_554  A
C111        C982   1.486       .  S
N112        C113   1.358       .  A
C113        N114   1.360       .  A
C113        C965   1.490       .  S
C115        N116   1.359       .  A
C115        N120   1.359       .  A
C115        C945   1.487       .  S
N116        C117   1.358       .  A
C117        N118   1.355       .  A
C117        C985   1.484       .  S
N118        C119   1.356       .  A
C119        N120   1.359       .  A
C119        C952   1.478       .  S
C121        N122   1.358       .  A
C121        N126   1.360       .  A
C121        C925   1.487       .  S
N122        C123   1.357       .  A
C123        N124   1.356       .  A
C123        C935   1.480       .  S
N124        C125   1.356       .  A
C125        N126   1.360       .  A
C125        C915   1.487       .  S
C127        N128   1.357       .  A
C127        N132   1.361       .  A
C127        C905   1.486       .  S
N128        C129   1.356       .  A
C129        N130   1.356       .  A
C129        C932   1.481       .  S
N130        C131   1.358       .  A
C131        N132   1.360       .  A
C131        C892   1.485   1_455  S
C133        N134   1.360       .  A
C133        N138   1.360       .  A
C133        C872   1.491       .  S
N134        C135   1.359       .  A
C135        N136   1.357       .  A
C135        C885   1.487       .  S
N136        C137   1.357       .  A
C137        N138   1.361       .  A
C137        C862   1.485       .  S
C139        N140   1.360       .  A
C139        N144   1.357       .  A
C139        C852   1.486       .  S
N140        C141   1.359   1_565  A
C141        N142   1.357       .  A
C141        C882   1.486       .  S
N142        C143   1.357   1_545  A
C143        N144   1.357       .  A
C143        C842   1.481       .  S
C145        N146   1.354       .  A
C145        N150   1.359       .  A
C145        C822   1.480       .  S
N146        C147   1.355       .  A
C147        N148   1.357       .  A
C147        C835   1.480       .  S
N148        C149   1.359       .  A
C149        N150   1.359       .  A
C149        C815   1.485       .  S
C151        N152   1.360       .  A
C151        N156   1.357       .  A
C151        C792   1.486   1_565  S
N152        C153   1.360       .  A
C153        N154   1.357       .  A
C153        C802   1.488       .  S
N154        C155   1.357       .  A
C155        N156   1.357       .  A
C155        C832   1.481       .  S
C157        N158   1.358       .  A
C157        N162   1.360       .  A
C157        C762   1.489       .  S
N158        C159   1.359       .  A
C159        N160   1.357       .  A
C159        C772   1.484       .  S
N160        C161   1.357       .  A
C161        N162   1.359       .  A
C161        C785   1.484       .  S
C163        N164   1.362       .  A
C163        N168   1.359       .  A
C163        C745   1.490       .  S
N164        C165   1.361       .  A
C165        N166   1.357   1_565  A
C165        C752   1.483       .  S
N166        C167   1.357       .  A
C167        N168   1.358   1_545  A
C167        C782   1.486       .  S
C169        N170   1.358       .  A
C169        N174   1.358       .  A
C169        C722   1.484       .  S
N170        C171   1.357       .  A
C171        N172   1.355       .  A
C171        C735   1.480   1_545  S
N172        C173   1.355       .  A
C173        N174   1.357       .  A
C173        C712   1.480       .  S
C175        N176   1.362       .  A
C175        N180   1.357       .  A
C175        C705   1.486       .  S
N176        C177   1.361       .  A
C177        N178   1.355       .  A
C177        C692   1.485       .  S
N178        C179   1.355       .  A
C179        N180   1.356       .  A
C179        C732   1.480       .  S
C181        N182   1.356       .  A
C181        N186   1.360       .  A
C181        C675   1.486       .  S
N182        C183   1.356       .  A
C183        N184   1.356       .  A
C183        C662   1.480       .  S
N184        C185   1.357       .  A
C185        N186   1.359       .  A
C185        C682   1.484       .  S
C187        N188   1.356   1_455  A
C187        N192   1.358       .  A
C187        C645   1.484       .  S
N188        C189   1.358       .  A
C189        N190   1.359       .  A
C189        C685   1.484       .  S
N190        C191   1.359       .  A
C191        N192   1.357   1_655  A
C191        C652   1.487       .  S
C193        N194   1.361   1_554  A
C193        N198   1.359       .  A
C193        C612   1.490       .  S
N194        C195   1.361       .  A
C195        N196   1.355       .  A
C195        C625   1.488       .  S
N196        C197   1.356   1_556  A
C197        N198   1.359       .  A
C197        C632   1.481       .  S
C199        N200   1.362       .  A
C199        N204   1.360       .  A
C199        C602   1.488       .  S
N200        C201   1.361       .  A
C201        N202   1.354       .  A
C201        C592   1.483       .  S
N202        C203   1.355       .  A
C203        N204   1.357       .  A
C203        C635   1.481       .  S
C205        N206   1.362       .  A
C205        N210   1.360       .  A
C205        C572   1.495       .  S
N206        C207   1.362       .  A
C207        N208   1.358       .  A
C207        C565   1.492       .  S
N208        C209   1.359       .  A
C209        N210   1.359       .  A
C209        C582   1.489       .  S
C211        N212   1.360       .  A
C211        N216   1.360       .  A
C211        C552   1.490       .  S
N212        C213   1.360   1_655  A
C213        N214   1.357       .  A
C213        C585   1.488       .  S
N214        C215   1.357   1_455  A
C215        N216   1.359       .  A
C215        C545   1.487       .  S
O217        C228   1.292       .  A
O217       Eu253   2.459       .  S
O218        C229   1.293       .  A
O218       Eu252   2.471       .  S
O219        C230   1.291       .  A
O219       Eu225   2.454       .  S
O220        C231   1.291       .  A
O220       Eu225   2.453       .  S
O221        C231   1.290       .  A
O221       Eu255   2.443       .  S
O222        C230   1.290       .  A
O222       Eu254   2.451       .  S
O223        C229   1.292       .  A
O223       Eu225   2.460       .  S
O224        C228   1.289       .  A
O224       Eu225   2.448       .  S
Eu225       O235   2.357       .  S
Eu225       O227   2.347       .  S
Eu225       O226   2.350       .  S
Eu225       O233   2.348       .  S
O226       Eu255   2.360       .  S
O226       Eu252   2.344       .  S
O227       Eu253   2.342       .  S
O227       Eu254   2.348       .  S
C228       C1425   1.486       .  S
C229       C1095   1.493       .  S
C230       C1372   1.487       .  S
C231        C775   1.478       .  S
H232        O233   0.966       .  S
O233       Eu254   2.347       .  S
O233       Eu252   2.358       .  S
H234        O235   0.966       .  S
O235       Eu253   2.348       .  S
O235       Eu255   2.358       .  S
O236        C259   1.294       .  A
O236       Eu252   2.467       .  S
O237        C260   1.288       .  A
O237       Eu253   2.437       .  S
O238        C261   1.294       .  A
O238       Eu254   2.477       .  S
O239        C262   1.291       .  A
O239       Eu255   2.460       .  S
O240        C263   1.295       .  A
O240       Eu255   2.481       .  S
O241        C264   1.292       .  A
O241       Eu254   2.460       .  S
O242        C265   1.297       .  A
O242       Eu256   2.487       .  S
O243        C266   1.292       .  A
O243       Eu256   2.455       .  S
O244        C265   1.287       .  A
O244       Eu254   2.432       .  S
O245        C266   1.294       .  A
O245       Eu255   2.478       .  S
O246        C261   1.290       .  A
O246       Eu252   2.447       .  S
O247        C264   1.293       .  A
O247       Eu253   2.464       .  S
O248        C263   1.291       .  A
O248       Eu253   2.453       .  S
O249        C262   1.295       .  A
O249       Eu252   2.473       .  S
O250        C259   1.287       .  A
O250       Eu256   2.431       .  S
O251        C260   1.293       .  A
O251       Eu256   2.464       .  S
Eu252       O270   2.348       .  S
Eu252       O258   2.358       .  S
Eu253       O257   2.354       .  S
Eu253       O268   2.357       .  S
Eu254       O268   2.358       .  S
Eu254       O258   2.348       .  S
Eu255       O257   2.344       .  S
Eu255       O270   2.348       .  S
Eu256       O257   2.350       .  S
Eu256       O268   2.340       .  S
Eu256       O270   2.362       .  S
Eu256       O258   2.352       .  S
C259       C1262   1.479       .  S
C260       C1112   1.486       .  S
C261        C962   1.489       .  S
C262        C575   1.494       .  S
C263       C1045   1.490       .  S
C264        C555   1.490       .  S
C265        C622   1.489       .  S
C266       C1342   1.492       .  S
H267        O268   0.966       .  S
H269        O270   0.966       .  S
O271        C282   1.293       .  A
O271       Eu307   2.470   1_556  S
O272        C283   1.289       .  A
O272       Eu306   2.442       .  S
O273        C284   1.292       .  A
O273       Eu279   2.466   1_456  S
O274        C285   1.290       .  A
O274       Eu279   2.452       .  S
O275        C285   1.291       .  A
O275       Eu309   2.455       .  S
O276        C284   1.289   1_545  A
O276       Eu308   2.442   1_556  S
O277        C283   1.292       .  A
O277       Eu279   2.462   1_455  S
O278        C282   1.288       .  A
O278       Eu279   2.434   1_556  S
Eu279       O289   2.359       .  S
Eu279       O281   2.344   1_554  S
Eu279       O280   2.343       .  S
Eu279       O287   2.350   1_655  S
O280       Eu309   2.341       .  S
O280       Eu306   2.352   1_655  S
O281       Eu307   2.349   1_556  S
O281       Eu308   2.343   1_666  S
C282       C1355   1.485       .  S
C283        C605   1.487       .  S
C284       C1102   1.479       .  S
C285       C1275   1.484       .  S
H286        O287   0.966       .  S
O287       Eu308   2.359   1_565  S
O287       Eu306   2.358       .  S
H288        O289   0.966       .  S
O289       Eu307   2.346       .  S
O289       Eu309   2.346       .  S
O290        C313   1.294       .  A
O290       Eu306   2.472   1_545  S
O291        C314   1.293       .  A
O291       Eu307   2.463   1_545  S
O292        C315   1.291       .  A
O292       Eu308   2.459       .  S
O293        C316   1.292       .  A
O293       Eu309   2.458       .  S
O294        C317   1.289       .  A
O294       Eu309   2.445       .  S
O295        C318   1.294   1_455  A
O295       Eu308   2.470   1_556  S
O296        C319   1.290       .  A
O296       Eu310   2.445   1_455  S
O297        C320   1.291   1_545  A
O297       Eu310   2.454       .  S
O298        C319   1.291       .  A
O298       Eu308   2.456       .  S
O299        C320   1.289       .  A
O299       Eu309   2.437       .  S
O300        C315   1.292       .  A
O300       Eu306   2.456   1_545  S
O301        C318   1.289       .  A
O301       Eu307   2.438   1_546  S
O302        C317   1.293       .  A
O302       Eu307   2.464       .  S
O303        C316   1.290   1_455  A
O303       Eu306   2.447       .  S
O304        C313   1.288       .  A
O304       Eu310   2.437   1_455  S
O305        C314   1.290       .  A
O305       Eu310   2.454       .  S
Eu306       O324   2.345   1_455  S
Eu306       O312   2.340   1_565  S
Eu307       O311   2.342       .  S
Eu307       O322   2.359   1_565  S
Eu308       O322   2.349   1_455  S
Eu308       O312   2.347       .  S
Eu309       O311   2.352       .  S
Eu309       O324   2.347       .  S
Eu310       O311   2.344   1_545  S
Eu310       O322   2.350       .  S
Eu310       O324   2.349   1_545  S
Eu310       O312   2.347   1_655  S
C313       C1162   1.487       .  S
C314        C615   1.489       .  S
C315        C972   1.487       .  S
C316        C655   1.484       .  S
C317        C942   1.487       .  S
C318        C542   1.485       .  S
C319       C1242   1.486       .  S
C320        C845   1.480       .  S
H321        O322   0.966       .  S
H323        O324   0.966       .  S
O325        C336   1.295       .  A
O325       Eu361   2.478       .  S
O326        C337   1.290       .  A
O326       Eu360   2.448       .  S
O327        C338   1.293       .  A
O327       Eu333   2.463       .  S
O328        C339   1.294       .  A
O328       Eu333   2.474       .  S
O329        C339   1.290       .  A
O329       Eu363   2.449       .  S
O330        C338   1.291       .  A
O330       Eu362   2.458       .  S
O331        C337   1.292       .  A
O331       Eu333   2.460       .  S
O332        C336   1.289       .  A
O332       Eu333   2.442       .  S
Eu333       O343   2.352       .  S
Eu333       O335   2.353       .  S
Eu333       O334   2.342       .  S
Eu333       O341   2.352       .  S
O334       Eu363   2.348       .  S
O334       Eu360   2.343       .  S
O335       Eu361   2.339       .  S
O335       Eu362   2.347       .  S
C336       C1322   1.490       .  S
C337        C812   1.484       .  S
C338       C1225   1.491       .  S
C339       C1025   1.490       .  S
H340        O341   0.964       .  S
O341       Eu362   2.347       .  S
O341       Eu360   2.361       .  S
H342        O343   0.965       .  S
O343       Eu361   2.353       .  S
O343       Eu363   2.355       .  S
O344        C367   1.293       .  A
O344       Eu360   2.472       .  S
O345        C368   1.290       .  A
O345       Eu361   2.449       .  S
O346        C369   1.291       .  A
O346       Eu362   2.459       .  S
O347        C370   1.290       .  A
O347       Eu363   2.450       .  S
O348        C371   1.292       .  A
O348       Eu363   2.464       .  S
O349        C372   1.291       .  A
O349       Eu362   2.456       .  S
O350        C373   1.295       .  A
O350       Eu364   2.477       .  S
O351        C374   1.292       .  A
O351       Eu364   2.459       .  S
O352        C373   1.288       .  A
O352       Eu362   2.436       .  S
O353        C374   1.294       .  A
O353       Eu363   2.466       .  S
O354        C369   1.287       .  A
O354       Eu360   2.426       .  S
O355        C372   1.291       .  A
O355       Eu361   2.456       .  S
O356        C371   1.287       .  A
O356       Eu361   2.426       .  S
O357        C370   1.291       .  A
O357       Eu360   2.456       .  S
O358        C367   1.288       .  A
O358       Eu364   2.438       .  S
O359        C368   1.292       .  A
O359       Eu364   2.455       .  S
Eu360       O378   2.342       .  S
Eu360       O366   2.345       .  S
Eu361       O365   2.352       .  S
Eu361       O376   2.352       .  S
Eu362       O376   2.354       .  S
Eu362       O366   2.351       .  S
Eu363       O365   2.340       .  S
Eu363       O378   2.353       .  S
Eu364       O365   2.346       .  S
Eu364       O376   2.349       .  S
Eu364       O378   2.360       .  S
Eu364       O366   2.343       .  S
C367       C1142   1.487       .  S
C368        C795   1.484       .  S
C369        C665   1.479       .  S
C370        C922   1.486       .  S
C371        C715   1.477       .  S
C372        C895   1.483       .  S
C373        C865   1.483       .  S
C374       C1195   1.491       .  S
H375        O376   0.964       .  S
H377        O378   0.964       .  S
O379        C390   1.293       .  A
O379       Eu415   2.469       .  S
O380        C391   1.293       .  A
O380       Eu414   2.469       .  S
O381        C392   1.291       .  A
O381       Eu387   2.460       .  S
O382        C393   1.295       .  A
O382       Eu387   2.477       .  S
O383        C393   1.288       .  A
O383       Eu417   2.434       .  S
O384        C392   1.293       .  A
O384       Eu416   2.467       .  S
O385        C391   1.289       .  A
O385       Eu387   2.440       .  S
O386        C390   1.292       .  A
O386       Eu387   2.462       .  S
Eu387       O397   2.350       .  S
Eu387       O389   2.347       .  S
Eu387       O388   2.347       .  S
Eu387       O395   2.361       .  S
O388       Eu417   2.346       .  S
O388       Eu414   2.345       .  S
O389       Eu415   2.355       .  S
O389       Eu416   2.347       .  S
C390       C1412   1.492       .  S
C391        C995   1.484       .  S
C392       C1062   1.491       .  S
C393        C695   1.487       .  S
H394        O395   0.964       .  S
O395       Eu416   2.350       .  S
O395       Eu414   2.350       .  S
H396        O397   0.964       .  S
O397       Eu415   2.354       .  S
O397       Eu417   2.362       .  S
O398        C421   1.293       .  A
O398       Eu414   2.464       .  S
O399        C422   1.297       .  A
O399       Eu415   2.485       .  S
O400        C423   1.291       .  A
O400       Eu416   2.455       .  S
O401        C424   1.294       .  A
O401       Eu417   2.472       .  S
O402        C425   1.291       .  A
O402       Eu417   2.459       .  S
O403        C426   1.292       .  A
O403       Eu416   2.459       .  S
O404        C427   1.294       .  A
O404       Eu418   2.473       .  S
O405        C428   1.290       .  A
O405       Eu418   2.451       .  S
O406        C427   1.289       .  A
O406       Eu416   2.447       .  S
O407        C428   1.294       .  A
O407       Eu417   2.469       .  S
O408        C423   1.291       .  A
O408       Eu414   2.455       .  S
O409        C426   1.289       .  A
O409       Eu415   2.438       .  S
O410        C425   1.293       .  A
O410       Eu415   2.461       .  S
O411        C424   1.289       .  A
O411       Eu414   2.439       .  S
O412        C421   1.292       .  A
O412       Eu418   2.463       .  S
O413        C422   1.288       .  A
O413       Eu418   2.437       .  S
Eu414       O432   2.360       .  S
Eu414       O420   2.347       .  S
Eu415       O419   2.344       .  S
Eu415       O430   2.357       .  S
Eu416       O430   2.354       .  S
Eu416       O420   2.355       .  S
Eu417       O419   2.341       .  S
Eu417       O432   2.345       .  S
Eu418       O419   2.353       .  S
Eu418       O430   2.356       .  S
Eu418       O432   2.355       .  S
Eu418       O420   2.344       .  S
C421       C1392   1.490       .  S
C422       C1125   1.485       .  S
C423        C765   1.488       .  S
C424       C1292   1.487       .  S
C425        C742   1.489       .  S
C426       C1365   1.482       .  S
C427        C562   1.490       .  S
C428       C1055   1.489       .  S
H429        O430   0.965       .  S
H431        O432   0.964       .  S
O433        C444   1.293       .  A
O433       Eu469   2.465       .  S
O434        C445   1.294       .  A
O434       Eu468   2.469       .  S
O435        C446   1.293       .  A
O435       Eu441   2.464       .  S
O436        C447   1.296       .  A
O436       Eu441   2.478       .  S
O437        C447   1.288       .  A
O437       Eu471   2.440       .  S
O438        C446   1.290       .  A
O438       Eu470   2.448       .  S
O439        C445   1.292       .  A
O439       Eu441   2.460       .  S
O440        C444   1.288       .  A
O440       Eu441   2.439       .  S
Eu441       O451   2.349       .  S
Eu441       O443   2.353       .  S
Eu441       O442   2.345       .  S
Eu441       O449   2.353       .  S
O442       Eu471   2.352       .  S
O442       Eu468   2.344       .  S
O443       Eu469   2.343       .  S
O443       Eu470   2.346       .  S
C444       C1255   1.483       .  S
C445        C875   1.491       .  S
C446       C1175   1.485       .  S
C447        C595   1.487       .  S
H448        O449   0.965       .  S
O449       Eu470   2.348       .  S
O449       Eu468   2.359       .  S
H450        O451   0.965       .  S
O451       Eu469   2.344       .  S
O451       Eu471   2.350       .  S
O452        C475   1.296       .  A
O452       Eu468   2.477       .  S
O453        C476   1.290       .  A
O453       Eu469   2.447       .  S
O454        C477   1.293       .  A
O454       Eu470   2.468       .  S
O455        C478   1.288       .  A
O455       Eu471   2.442       .  S
O456        C479   1.292       .  A
O456       Eu471   2.456       .  S
O457        C480   1.292       .  A
O457       Eu470   2.460       .  S
O458        C481   1.295       .  A
O458       Eu472   2.476       .  S
O459        C482   1.289       .  A
O459       Eu472   2.448       .  S
O460        C481   1.285       .  A
O460       Eu470   2.422       .  S
O461        C482   1.295       .  A
O461       Eu471   2.475       .  S
O462        C477   1.289       .  A
O462       Eu468   2.441       .  S
O463        C480   1.290       .  A
O463       Eu469   2.449       .  S
O464        C479   1.287       .  A
O464       Eu469   2.434       .  S
O465        C478   1.292       .  A
O465       Eu468   2.458       .  S
O466        C475   1.287       .  A
O466       Eu472   2.431       .  S
O467        C476   1.292       .  A
O467       Eu472   2.462       .  S
Eu468       O486   2.348       .  S
Eu468       O474   2.351       .  S
Eu469       O473   2.350       .  S
Eu469       O484   2.352       .  S
Eu470       O484   2.358       .  S
Eu470       O474   2.347       .  S
Eu471       O473   2.337       .  S
Eu471       O486   2.344       .  S
Eu472       O473   2.344       .  S
Eu472       O484   2.340       .  S
Eu472       O486   2.360       .  S
Eu472       O474   2.350       .  S
C475       C1205   1.481       .  S
C476        C855   1.487       .  S
C477        C902   1.485       .  S
C478        C642   1.484       .  S
C479        C955   1.480       .  S
C480        C672   1.485       .  S
C481        C825   1.483       .  S
C482       C1152   1.490       .  S
H483        O484   0.965       .  S
H485        O486   0.965       .  S
O487        C498   1.292       .  A
O487       Eu523   2.464   1_545  S
O488        C499   1.291       .  A
O488       Eu522   2.459   1_545  S
O489        C500   1.294   1_545  A
O489       Eu495   2.472       .  S
O490        C501   1.291       .  A
O490       Eu495   2.453       .  S
O491        C501   1.293       .  A
O491       Eu525   2.461   1_455  S
O492        C500   1.289       .  A
O492       Eu524   2.446   1_455  S
O493        C499   1.293       .  A
O493       Eu495   2.467       .  S
O494        C498   1.288   1_455  A
O494       Eu495   2.432       .  S
Eu495       O505   2.360   1_455  S
Eu495       O497   2.350   1_445  S
Eu495       O496   2.345       .  S
Eu495       O503   2.345   1_545  S
O496       Eu525   2.347   1_455  S
O496       Eu522   2.351   1_545  S
O497       Eu523   2.350       .  S
O497       Eu524   2.348       .  S
C498       C1402   1.483       .  S
C499       C1015   1.493       .  S
C500        C755   1.480       .  S
C501       C1302   1.487       .  S
H502        O503   0.965       .  S
O503       Eu524   2.360   1_455  S
O503       Eu522   2.349       .  S
H504        O505   0.965       .  S
O505       Eu523   2.347   1_545  S
O505       Eu525   2.354       .  S
O506        C529   1.292   1_455  A
O506       Eu522   2.465       .  S
O507        C530   1.292       .  A
O507       Eu523   2.458       .  S
O508        C531   1.290       .  A
O508       Eu524   2.450   1_455  S
O509        C532   1.294       .  A
O509       Eu525   2.473   1_455  S
O510        C533   1.291       .  A
O510       Eu525   2.450       .  S
O511        C534   1.293       .  A
O511       Eu524   2.469       .  S
O512        C535   1.289       .  A
O512       Eu526   2.446       .  S
O513        C536   1.293       .  A
O513       Eu526   2.466       .  S
O514        C535   1.292       .  A
O514       Eu524   2.460       .  S
O515        C536   1.291   1_545  A
O515       Eu525   2.452       .  S
O516        C531   1.292       .  A
O516       Eu522   2.458       .  S
O517        C534   1.289       .  A
O517       Eu523   2.442       .  S
O518        C533   1.291       .  A
O518       Eu523   2.455   1_545  S
O519        C532   1.289       .  A
O519       Eu522   2.438   1_545  S
O520        C529   1.289       .  A
O520       Eu526   2.438       .  S
O521        C530   1.292       .  A
O521       Eu526   2.463       .  S
Eu522       O540   2.351   1_455  S
Eu522       O528   2.349   1_455  S
Eu523       O527   2.346       .  S
Eu523       O538   2.351       .  S
Eu524       O538   2.348       .  S
Eu524       O528   2.352       .  S
Eu525       O527   2.353   1_545  S
Eu525       O540   2.347   1_545  S
Eu526       O527   2.339       .  S
Eu526       O538   2.350       .  S
Eu526       O540   2.350       .  S
Eu526       O528   2.356       .  S
C529       C1212   1.481       .  S
C530       C1005   1.491       .  S
C531        C702   1.484       .  S
C532        C912   1.486       .  S
C533        C725   1.484       .  S
C534       C1075   1.482       .  S
C535       C1315   1.487       .  S
C536        C805   1.487       .  S
H537        O538   0.965       .  S
H539        O540   0.965       .  S
C541        C542   1.408       .  A
C541        C546   1.397       .  A
C541        H548   1.083       .  S
C542        C543   1.407   1_655  A
C543        C544   1.397       .  A
C543        F550   1.357       .  S
C544        C545   1.408   1_455  A
C544        H549   1.083       .  S
C545        C546   1.409       .  A
C546        F547   1.357       .  S
C551        C552   1.406       .  A
C551        C556   1.397       .  A
C551        H558   1.083       .  S
C552        C553   1.411       .  A
C553        C554   1.400       .  A
C553        F560   1.357       .  S
C554        C555   1.407       .  A
C554        H559   1.083       .  S
C555        C556   1.411       .  A
C556        F557   1.357       .  S
C561        C562   1.406       .  A
C561        C566   1.400       .  A
C561        H568   1.083       .  S
C562        C563   1.412       .  A
C563        C564   1.398       .  A
C563        F570   1.358       .  S
C564        C565   1.406       .  A
C564        H569   1.083       .  S
C565        C566   1.413       .  A
C566        F567   1.357       .  S
C571        C572   1.407       .  A
C571        C576   1.402       .  A
C571        H578   1.083       .  S
C572        C573   1.412       .  A
C573        C574   1.400       .  A
C573        F580   1.356       .  S
C574        C575   1.406       .  A
C574        H579   1.083       .  S
C575        C576   1.412       .  A
C576        F577   1.357       .  S
C581        C582   1.407       .  A
C581        C586   1.399       .  A
C581        H588   1.083       .  S
C582        C583   1.410       .  A
C583        C584   1.397       .  A
C583        F590   1.356       .  S
C584        C585   1.407       .  A
C584        H589   1.083       .  S
C585        C586   1.409       .  A
C586        F587   1.357       .  S
C591        C592   1.402       .  A
C591        C596   1.397       .  A
C591        H598   1.083       .  S
C592        C593   1.411       .  A
C593        C594   1.398       .  A
C593        F600   1.358       .  S
C594        C595   1.405       .  A
C594        H599   1.083       .  S
C595        C596   1.413       .  A
C596        F597   1.358       .  S
C601        C602   1.408       .  A
C601        C606   1.398       .  A
C601        H608   1.083       .  S
C602        C603   1.409       .  A
C603        C604   1.396       .  A
C603        F610   1.357       .  S
C604        C605   1.408       .  A
C604        H609   1.083       .  S
C605        C606   1.409       .  A
C606        F607   1.358       .  S
C611        C612   1.408       .  A
C611        C616   1.400       .  A
C611        H618   1.083       .  S
C612        C613   1.410   1_554  A
C613        C614   1.397   1_556  A
C613        F620   1.357       .  S
C614        C615   1.406       .  A
C614        H619   1.083   1_554  S
C615        C616   1.411       .  A
C616        F617   1.358       .  S
C621        C622   1.404       .  A
C621        C626   1.399       .  A
C621        H628   1.083       .  S
C622        C623   1.414       .  A
C623        C624   1.396       .  A
C623        F630   1.358       .  S
C624        C625   1.404       .  A
C624        H629   1.083       .  S
C625        C626   1.413       .  A
C626        F627   1.357       .  S
C631        C632   1.407       .  A
C631        C636   1.396       .  A
C631        H638   1.083       .  S
C632        C633   1.407       .  A
C633        C634   1.394   1_655  A
C633        F640   1.357       .  S
C634        C635   1.406       .  A
C634        H639   1.083       .  S
C635        C636   1.408   1_455  A
C636        F637   1.358       .  S
C641        C642   1.406       .  A
C641        C646   1.398       .  A
C641        H648   1.083       .  S
C642        C643   1.411       .  A
C643        C644   1.393       .  A
C643        F650   1.358       .  S
C644        C645   1.404       .  A
C644        H649   1.083       .  S
C645        C646   1.410       .  A
C646        F647   1.357       .  S
C651        C652   1.407       .  A
C651        C656   1.397       .  A
C651        H658   1.083       .  S
C652        C653   1.411   1_655  A
C653        C654   1.396       .  A
C653        F660   1.357       .  S
C654        C655   1.406   1_455  A
C654        H659   1.083       .  S
C655        C656   1.408       .  A
C656        F657   1.357       .  S
C661        C662   1.407       .  A
C661        C666   1.397       .  A
C661        H668   1.083       .  S
C662        C663   1.407       .  A
C663        C664   1.390       .  A
C663        F670   1.356       .  S
C664        C665   1.406       .  A
C664        H669   1.083       .  S
C665        C666   1.408       .  A
C666        F667   1.357       .  S
C671        C672   1.405       .  A
C671        C676   1.397       .  A
C671        H678   1.083       .  S
C672        C673   1.411       .  A
C673        C674   1.395       .  A
C673        F680   1.357       .  S
C674        C675   1.404       .  A
C674        H679   1.083       .  S
C675        C676   1.412       .  A
C676        F677   1.356       .  S
C681        C682   1.406       .  A
C681        C686   1.395       .  A
C681        H688   1.083       .  S
C682        C683   1.409       .  A
C683        C684   1.397       .  A
C683        F690   1.357       .  S
C684        C685   1.406       .  A
C684        H689   1.083       .  S
C685        C686   1.409       .  A
C686        F687   1.357       .  S
C691        C692   1.409       .  A
C691        C696   1.398       .  A
C691        H698   1.083       .  S
C692        C693   1.406       .  A
C693        C694   1.396       .  A
C693        F700   1.357       .  S
C694        C695   1.410       .  A
C694        H699   1.083       .  S
C695        C696   1.407       .  A
C696        F697   1.357       .  S
C701        C702   1.405       .  A
C701        C706   1.395       .  A
C701        H708   1.083       .  S
C702        C703   1.410       .  A
C703        C704   1.398       .  A
C703        F710   1.357       .  S
C704        C705   1.406       .  A
C704        H709   1.083       .  S
C705        C706   1.412       .  A
C706        F707   1.357       .  S
C711        C712   1.407       .  A
C711        C716   1.394       .  A
C711        H718   1.083       .  S
C712        C713   1.408       .  A
C713        C714   1.393       .  A
C713        F720   1.357       .  S
C714        C715   1.407       .  A
C714        H719   1.083       .  S
C715        C716   1.406       .  A
C716        F717   1.357       .  S
C721        C722   1.406       .  A
C721        C726   1.396       .  A
C721        H728   1.083   1_545  S
C722        C723   1.409       .  A
C723        C724   1.396       .  A
C723        F730   1.357       .  S
C724        C725   1.406       .  A
C724        H729   1.083       .  S
C725        C726   1.410       .  A
C726        F727   1.358   1_545  S
C731        C732   1.406       .  A
C731        C736   1.394       .  A
C731        H738   1.083       .  S
C732        C733   1.408       .  A
C733        C734   1.394       .  A
C733        F740   1.357       .  S
C734        C735   1.406       .  A
C734        H739   1.083   1_565  S
C735        C736   1.408       .  A
C736        F737   1.357       .  S
C741        C742   1.406       .  A
C741        C746   1.398       .  A
C741        H748   1.083       .  S
C742        C743   1.411       .  A
C743        C744   1.399       .  A
C743        F750   1.357       .  S
C744        C745   1.406       .  A
C744        H749   1.083       .  S
C745        C746   1.411       .  A
C746        F747   1.357       .  S
C751        C752   1.405       .  A
C751        C756   1.399       .  A
C751        H758   1.083       .  S
C752        C753   1.410   1_565  A
C753        C754   1.399       .  A
C753        F760   1.357       .  S
C754        C755   1.403   1_545  A
C754        H759   1.083       .  S
C755        C756   1.409       .  A
C756        F757   1.358       .  S
C761        C762   1.406       .  A
C761        C766   1.397       .  A
C761        H768   1.083       .  S
C762        C763   1.411       .  A
C763        C764   1.398       .  A
C763        F770   1.356       .  S
C764        C765   1.407       .  A
C764        H769   1.083       .  S
C765        C766   1.411       .  A
C766        F767   1.357       .  S
C771        C772   1.408       .  A
C771        C776   1.397       .  A
C771        H778   1.083       .  S
C772        C773   1.409       .  A
C773        C774   1.393       .  A
C773        F780   1.356       .  S
C774        C775   1.405       .  A
C774        H779   1.083       .  S
C775        C776   1.408       .  A
C776        F777   1.358       .  S
C781        C782   1.406       .  A
C781        C786   1.397       .  A
C781        H788   1.083       .  S
C782        C783   1.410       .  A
C783        C784   1.397       .  A
C783        F790   1.357       .  S
C784        C785   1.406       .  A
C784        H789   1.083       .  S
C785        C786   1.408       .  A
C786        F787   1.357       .  S
C791        C792   1.405       .  A
C791        C796   1.397       .  A
C791        H798   1.083       .  S
C792        C793   1.411       .  A
C793        C794   1.398       .  A
C793        F800   1.357   1_545  S
C794        C795   1.406       .  A
C794        H799   1.083       .  S
C795        C796   1.410       .  A
C796        F797   1.357       .  S
C801        C802   1.408       .  A
C801        C806   1.399       .  A
C801        H808   1.083       .  S
C802        C803   1.409   1_565  A
C803        C804   1.397       .  A
C803        F810   1.357       .  S
C804        C805   1.407   1_545  A
C804        H809   1.083       .  S
C805        C806   1.409       .  A
C806        F807   1.358       .  S
C811        C812   1.407       .  A
C811        C816   1.396       .  A
C811        H818   1.083       .  S
C812        C813   1.409       .  A
C813        C814   1.396       .  A
C813        F820   1.358       .  S
C814        C815   1.407       .  A
C814        H819   1.083       .  S
C815        C816   1.409       .  A
C816        F817   1.357       .  S
C821        C822   1.402       .  A
C821        C826   1.394       .  A
C821        H828   1.083       .  S
C822        C823   1.411       .  A
C823        C824   1.396       .  A
C823        F830   1.357       .  S
C824        C825   1.403       .  A
C824        H829   1.083       .  S
C825        C826   1.414       .  A
C826        F827   1.358       .  S
C831        C832   1.406       .  A
C831        C836   1.395       .  A
C831        H838   1.083       .  S
C832        C833   1.408       .  A
C833        C834   1.394       .  A
C833        F840   1.357       .  S
C834        C835   1.406       .  A
C834        H839   1.083       .  S
C835        C836   1.408       .  A
C836        F837   1.357       .  S
C841        C842   1.407   1_545  A
C841        C846   1.396       .  A
C841        H848   1.083       .  S
C842        C843   1.408       .  A
C843        C844   1.392       .  A
C843        F850   1.356       .  S
C844        C845   1.406       .  A
C844        H849   1.083       .  S
C845        C846   1.408   1_565  A
C846        F847   1.357       .  S
C851        C852   1.406       .  A
C851        C856   1.397       .  A
C851        H858   1.083       .  S
C852        C853   1.410       .  A
C853        C854   1.396       .  A
C853        F860   1.357       .  S
C854        C855   1.407       .  A
C854        H859   1.083       .  S
C855        C856   1.410       .  A
C856        F857   1.357       .  S
C861        C862   1.404       .  A
C861        C866   1.397       .  A
C861        H868   1.083       .  S
C862        C863   1.411       .  A
C863        C864   1.399       .  A
C863        F870   1.357       .  S
C864        C865   1.404       .  A
C864        H869   1.083       .  S
C865        C866   1.411       .  A
C866        F867   1.358       .  S
C871        C872   1.407       .  A
C871        C876   1.398   1_655  A
C871        H878   1.083       .  S
C872        C873   1.411       .  A
C873        C874   1.400   1_655  A
C873        F880   1.357       .  S
C874        C875   1.408       .  A
C874        H879   1.083       .  S
C875        C876   1.411       .  A
C876        F877   1.358       .  S
C881        C882   1.407       .  A
C881        C886   1.397       .  A
C881        H888   1.083       .  S
C882        C883   1.409       .  A
C883        C884   1.397       .  A
C883        F890   1.357       .  S
C884        C885   1.407       .  A
C884        H889   1.083       .  S
C885        C886   1.409       .  A
C886        F887   1.357       .  S
C891        C892   1.405       .  A
C891        C896   1.394       .  A
C891        H898   1.083       .  S
C892        C893   1.409       .  A
C893        C894   1.400       .  A
C893        F900   1.357   1_655  S
C894        C895   1.407       .  A
C894        H899   1.083       .  S
C895        C896   1.409       .  A
C896        F897   1.358       .  S
C901        C902   1.408       .  A
C901        C906   1.396       .  A
C901        H908   1.083       .  S
C902        C903   1.408       .  A
C903        C904   1.397       .  A
C903        F910   1.358       .  S
C904        C905   1.409       .  A
C904        H909   1.083       .  S
C905        C906   1.408       .  A
C906        F907   1.357       .  S
C911        C912   1.408       .  A
C911        C916   1.395       .  A
C911        H918   1.083       .  S
C912        C913   1.408       .  A
C913        C914   1.399       .  A
C913        F920   1.357       .  S
C914        C915   1.409       .  A
C914        H919   1.083       .  S
C915        C916   1.408       .  A
C916        F917   1.357       .  S
C921        C922   1.407       .  A
C921        C926   1.396       .  A
C921        H928   1.083       .  S
C922        C923   1.410       .  A
C923        C924   1.397       .  A
C923        F930   1.358       .  S
C924        C925   1.408       .  A
C924        H929   1.083       .  S
C925        C926   1.408       .  A
C926        F927   1.356       .  S
C931        C932   1.406       .  A
C931        C936   1.394       .  A
C931        H938   1.083       .  S
C932        C933   1.409       .  A
C933        C934   1.396       .  A
C933        F940   1.357       .  S
C934        C935   1.406       .  A
C934        H939   1.083       .  S
C935        C936   1.408       .  A
C936        F937   1.357       .  S
C941        C942   1.405       .  A
C941        C946   1.396       .  A
C941        H948   1.083       .  S
C942        C943   1.412       .  A
C943        C944   1.399       .  A
C943        F950   1.358       .  S
C944        C945   1.407       .  A
C944        H949   1.083       .  S
C945        C946   1.410       .  A
C946        F947   1.356       .  S
C951        C952   1.403       .  A
C951        C956   1.394       .  A
C951        H958   1.083       .  S
C952        C953   1.409       .  A
C953        C954   1.394       .  A
C953        F960   1.357       .  S
C954        C955   1.404       .  A
C954        H959   1.083       .  S
C955        C956   1.411       .  A
C956        F957   1.358       .  S
C961        C962   1.408       .  A
C961        C966   1.398       .  A
C961        H968   1.083       .  S
C962        C963   1.409       .  A
C963        C964   1.400       .  A
C963        F970   1.357       .  S
C964        C965   1.409       .  A
C964        H969   1.083       .  S
C965        C966   1.409       .  A
C966        F967   1.357       .  S
C971        C972   1.406       .  A
C971        C976   1.396       .  A
C971        H978   1.083   1_545  S
C972        C973   1.409       .  A
C973        C974   1.400       .  A
C973        F980   1.358   1_554  S
C974        C975   1.408       .  A
C974        H979   1.083   1_554  S
C975        C976   1.410       .  A
C976        F977   1.356       .  S
C981        C982   1.406       .  A
C981        C986   1.397   1_545  A
C981        H988   1.083       .  S
C982        C983   1.409   1_545  A
C983        C984   1.397       .  A
C983        F990   1.356       .  S
C984        C985   1.406       .  A
C984        H989   1.083       .  S
C985        C986   1.408       .  A
C986        F987   1.356       .  S
C991        C992   1.408       .  A
C991        C996   1.399       .  A
C991        H998   1.083       .  S
C992        C993   1.410       .  A
C993        C994   1.395       .  A
C993       F1000   1.356       .  S
C994        C995   1.406       .  A
C994        H999   1.083       .  S
C995        C996   1.408       .  A
C996        F997   1.357       .  S
C1001      C1002   1.408       .  A
C1001      C1006   1.402       .  A
C1001      H1008   1.083       .  S
C1002      C1003   1.411       .  A
C1003      C1004   1.396       .  A
C1003      F1010   1.356       .  S
C1004      C1005   1.406       .  A
C1004      H1009   1.083       .  S
C1005      C1006   1.411       .  A
C1006      F1007   1.357       .  S
C1011      C1012   1.407       .  A
C1011      C1016   1.397       .  A
C1011      H1018   1.083       .  S
C1012      C1013   1.411       .  A
C1013      C1014   1.402       .  A
C1013      F1020   1.357       .  S
C1014      C1015   1.409       .  A
C1014      H1019   1.083       .  S
C1015      C1016   1.411       .  A
C1016      F1017   1.358       .  S
C1021      C1022   1.407       .  A
C1021      C1026   1.397       .  A
C1021      H1028   1.083       .  S
C1022      C1023   1.409       .  A
C1023      C1024   1.399       .  A
C1023      F1030   1.358       .  S
C1024      C1025   1.409       .  A
C1024      H1029   1.083       .  S
C1025      C1026   1.409       .  A
C1026      F1027   1.357       .  S
C1031      C1032   1.405       .  A
C1031      C1036   1.399       .  A
C1031      H1038   1.083       .  S
C1032      C1033   1.411       .  A
C1033      C1034   1.398       .  A
C1033      F1040   1.357       .  S
C1034      C1035   1.404       .  A
C1034      H1039   1.083       .  S
C1035      C1036   1.410       .  A
C1036      F1037   1.357       .  S
C1041      C1042   1.407       .  A
C1041      C1046   1.400       .  A
C1041      H1048   1.083       .  S
C1042      C1043   1.405       .  A
C1043      C1044   1.401       .  A
C1043      F1050   1.358       .  S
C1044      C1045   1.410       .  A
C1044      H1049   1.083       .  S
C1045      C1046   1.409       .  A
C1046      F1047   1.357       .  S
C1051      C1052   1.408       .  A
C1051      C1056   1.403   1_655  A
C1051      H1058   1.083       .  S
C1052      C1053   1.412       .  A
C1053      C1054   1.396   1_655  A
C1053      F1060   1.357       .  S
C1054      C1055   1.404       .  A
C1054      H1059   1.083       .  S
C1055      C1056   1.411       .  A
C1056      F1057   1.358       .  S
C1061      C1062   1.407       .  A
C1061      C1066   1.399       .  A
C1061      H1068   1.083       .  S
C1062      C1063   1.411       .  A
C1063      C1064   1.399       .  A
C1063      F1070   1.358       .  S
C1064      C1065   1.407       .  A
C1064      H1069   1.083       .  S
C1065      C1066   1.411       .  A
C1066      F1067   1.357       .  S
C1071      C1072   1.409       .  A
C1071      C1076   1.398       .  A
C1071      H1078   1.083       .  S
C1072      C1073   1.407       .  A
C1073      C1074   1.396       .  A
C1073      F1080   1.357       .  S
C1074      C1075   1.407       .  A
C1074      H1079   1.083       .  S
C1075      C1076   1.407       .  A
C1076      F1077   1.358       .  S
C1081      C1082   1.407       .  A
C1081      C1086   1.396       .  A
C1081      H1088   1.083       .  S
C1082      C1083   1.408       .  A
C1083      C1084   1.397       .  A
C1083      F1090   1.357       .  S
C1084      C1085   1.407       .  A
C1084      H1089   1.083       .  S
C1085      C1086   1.408       .  A
C1086      F1087   1.357       .  S
C1091      C1092   1.407       .  A
C1091      C1096   1.398       .  A
C1091      H1098   1.083       .  S
C1092      C1093   1.410       .  A
C1093      C1094   1.402       .  A
C1093      F1100   1.357       .  S
C1094      C1095   1.409       .  A
C1094      H1099   1.083       .  S
C1095      C1096   1.410       .  A
C1096      F1097   1.357       .  S
C1101      C1102   1.404       .  A
C1101      C1106   1.394       .  A
C1101      H1108   1.084   1_565  S
C1102      C1103   1.407       .  A
C1103      C1104   1.400       .  A
C1103      F1110   1.358       .  S
C1104      C1105   1.408       .  A
C1104      H1109   1.083       .  S
C1105      C1106   1.409       .  A
C1106      F1107   1.357   1_565  S
C1111      C1112   1.405       .  A
C1111      C1116   1.397       .  A
C1111      H1118   1.083       .  S
C1112      C1113   1.412       .  A
C1113      C1114   1.396       .  A
C1113      F1120   1.358       .  S
C1114      C1115   1.405       .  A
C1114      H1119   1.083       .  S
C1115      C1116   1.412       .  A
C1116      F1117   1.357       .  S
C1121      C1122   1.406       .  A
C1121      C1126   1.400       .  A
C1121      H1128   1.083       .  S
C1122      C1123   1.412       .  A
C1123      C1124   1.399       .  A
C1123      F1130   1.357       .  S
C1124      C1125   1.402       .  A
C1124      H1129   1.083       .  S
C1125      C1126   1.412       .  A
C1126      F1127   1.358       .  S
C1131      C1132   1.405       .  A
C1131      C1136   1.397       .  A
C1131      H1138   1.083       .  S
C1132      C1133   1.409       .  A
C1133      C1134   1.400       .  A
C1133      F1140   1.358       .  S
C1134      C1135   1.408       .  A
C1134      H1139   1.083       .  S
C1135      C1136   1.408       .  A
C1136      F1137   1.357       .  S
C1141      C1142   1.409       .  A
C1141      C1146   1.394       .  A
C1141      H1148   1.083       .  S
C1142      C1143   1.408       .  A
C1143      C1144   1.399       .  A
C1143      F1150   1.357       .  S
C1144      C1145   1.409       .  A
C1144      H1149   1.083       .  S
C1145      C1146   1.407       .  A
C1146      F1147   1.357       .  S
C1151      C1152   1.406       .  A
C1151      C1156   1.398       .  A
C1151      H1158   1.083       .  S
C1152      C1153   1.412       .  A
C1153      C1154   1.398       .  A
C1153      F1160   1.358       .  S
C1154      C1155   1.407       .  A
C1154      H1159   1.083       .  S
C1155      C1156   1.410       .  A
C1156      F1157   1.356       .  S
C1161      C1162   1.409       .  A
C1161      C1166   1.396       .  A
C1161      H1168   1.083       .  S
C1162      C1163   1.408       .  A
C1163      C1164   1.398       .  A
C1163      F1170   1.357       .  S
C1164      C1165   1.409       .  A
C1164      H1169   1.083       .  S
C1165      C1166   1.406       .  A
C1166      F1167   1.357       .  S
C1171      C1172   1.407       .  A
C1171      C1176   1.397       .  A
C1171      H1178   1.083       .  S
C1172      C1173   1.409       .  A
C1173      C1174   1.399       .  A
C1173      F1180   1.356       .  S
C1174      C1175   1.406       .  A
C1174      H1179   1.083       .  S
C1175      C1176   1.410       .  A
C1176      F1177   1.358       .  S
C1181      C1182   1.406       .  A
C1181      C1186   1.396       .  A
C1181      H1188   1.083       .  S
C1182      C1183   1.408       .  A
C1183      C1184   1.396       .  A
C1183      F1190   1.357       .  S
C1184      C1185   1.407       .  A
C1184      H1189   1.083       .  S
C1185      C1186   1.408       .  A
C1186      F1187   1.356       .  S
C1191      C1192   1.408       .  A
C1191      C1196   1.400   1_565  A
C1191      H1198   1.083       .  S
C1192      C1193   1.411       .  A
C1193      C1194   1.399   1_565  A
C1193      F1200   1.357       .  S
C1194      C1195   1.407       .  A
C1194      H1199   1.083       .  S
C1195      C1196   1.411       .  A
C1196      F1197   1.358       .  S
C1201      C1202   1.405       .  A
C1201      C1206   1.397       .  A
C1201      H1208   1.083       .  S
C1202      C1203   1.413       .  A
C1203      C1204   1.395       .  A
C1203      F1210   1.355       .  S
C1204      C1205   1.401       .  A
C1204      H1209   1.083       .  S
C1205      C1206   1.412       .  A
C1206      F1207   1.358       .  S
C1211      C1212   1.406       .  A
C1211      C1216   1.393       .  A
C1211      H1218   1.083       .  S
C1212      C1213   1.407   1_655  A
C1213      C1214   1.398       .  A
C1213      F1220   1.358       .  S
C1214      C1215   1.408   1_455  A
C1214      H1219   1.083       .  S
C1215      C1216   1.408       .  A
C1216      F1217   1.356       .  S
C1221      C1222   1.407       .  A
C1221      C1226   1.401       .  A
C1221      H1228   1.083       .  S
C1222      C1223   1.411       .  A
C1223      C1224   1.397       .  A
C1223      F1230   1.356       .  S
C1224      C1225   1.406       .  A
C1224      H1229   1.083       .  S
C1225      C1226   1.412       .  A
C1226      F1227   1.357       .  S
C1231      C1232   1.404       .  A
C1231      C1236   1.397       .  A
C1231      H1238   1.083       .  S
C1232      C1233   1.412       .  A
C1233      C1234   1.397       .  A
C1233      F1240   1.357       .  S
C1234      C1235   1.404       .  A
C1234      H1239   1.083       .  S
C1235      C1236   1.412       .  A
C1236      F1237   1.356       .  S
C1241      C1242   1.407       .  A
C1241      C1246   1.394       .  A
C1241      H1248   1.083       .  S
C1242      C1243   1.409       .  A
C1243      C1244   1.399       .  A
C1243      F1250   1.358       .  S
C1244      C1245   1.408       .  A
C1244      H1249   1.083       .  S
C1245      C1246   1.409       .  A
C1246      F1247   1.357       .  S
C1251      C1252   1.404       .  A
C1251      C1256   1.395       .  A
C1251      H1258   1.083       .  S
C1252      C1253   1.412       .  A
C1253      C1254   1.398       .  A
C1253      F1260   1.357       .  S
C1254      C1255   1.404       .  A
C1254      H1259   1.083       .  S
C1255      C1256   1.411       .  A
C1256      F1257   1.358       .  S
C1261      C1262   1.401       .  A
C1261      C1266   1.393       .  A
C1261      H1268   1.083       .  S
C1262      C1263   1.412       .  A
C1263      C1264   1.396       .  A
C1263      F1270   1.358       .  S
C1264      C1265   1.405       .  A
C1264      H1269   1.083       .  S
C1265      C1266   1.412       .  A
C1266      F1267   1.357       .  S
C1271      C1272   1.406   1_556  A
C1271      C1276   1.397   1_556  A
C1271      H1278   1.083       .  S
C1272      C1273   1.411       .  A
C1273      C1274   1.396       .  A
C1273      F1280   1.357       .  S
C1274      C1275   1.406       .  A
C1274      H1279   1.083       .  S
C1275      C1276   1.410       .  A
C1276      F1277   1.357   1_554  S
C1281      C1282   1.407       .  A
C1281      C1286   1.396       .  A
C1281      H1288   1.083   1_554  S
C1282      C1283   1.407       .  A
C1283      C1284   1.394       .  A
C1283      F1290   1.357       .  S
C1284      C1285   1.406       .  A
C1284      H1289   1.083       .  S
C1285      C1286   1.408       .  A
C1286      F1287   1.357       .  S
C1291      C1292   1.410       .  A
C1291      C1296   1.397       .  A
C1291      H1298   1.083       .  S
C1292      C1293   1.408       .  A
C1293      C1294   1.396       .  A
C1293      F1300   1.357       .  S
C1294      C1295   1.407       .  A
C1294      H1299   1.083       .  S
C1295      C1296   1.407       .  A
C1296      F1297   1.358       .  S
C1301      C1302   1.407       .  A
C1301      C1306   1.398       .  A
C1301      H1308   1.083       .  S
C1302      C1303   1.411       .  A
C1303      C1304   1.396       .  A
C1303      F1310   1.358       .  S
C1304      C1305   1.406       .  A
C1304      H1309   1.083       .  S
C1305      C1306   1.411       .  A
C1306      F1307   1.357       .  S
C1311      C1312   1.405       .  A
C1311      C1316   1.397       .  A
C1311      H1318   1.083       .  S
C1312      C1313   1.413       .  A
C1313      C1314   1.398       .  A
C1313      F1320   1.357       .  S
C1314      C1315   1.405       .  A
C1314      H1319   1.083       .  S
C1315      C1316   1.412       .  A
C1316      F1317   1.358       .  S
C1321      C1322   1.410       .  A
C1321      C1326   1.396       .  A
C1321      H1328   1.083       .  S
C1322      C1323   1.409       .  A
C1323      C1324   1.400       .  A
C1323      F1330   1.358       .  S
C1324      C1325   1.410       .  A
C1324      H1329   1.083       .  S
C1325      C1326   1.406       .  A
C1326      F1327   1.357       .  S
C1331      C1332   1.404       .  A
C1331      C1336   1.395   1_655  A
C1331      H1338   1.083       .  S
C1332      C1333   1.409       .  A
C1333      C1334   1.394       .  A
C1333      F1340   1.357       .  S
C1334      C1335   1.404   1_655  A
C1334      H1339   1.083       .  S
C1335      C1336   1.411       .  A
C1336      F1337   1.357       .  S
C1341      C1342   1.407       .  A
C1341      C1346   1.396       .  A
C1341      H1348   1.083       .  S
C1342      C1343   1.411       .  A
C1343      C1344   1.403       .  A
C1343      F1350   1.357       .  S
C1344      C1345   1.407       .  A
C1344      H1349   1.083       .  S
C1345      C1346   1.411       .  A
C1346      F1347   1.357       .  S
C1351      C1352   1.408       .  A
C1351      C1356   1.400       .  A
C1351      H1358   1.083       .  S
C1352      C1353   1.406       .  A
C1353      C1354   1.392       .  A
C1353      F1360   1.357       .  S
C1354      C1355   1.408       .  A
C1354      H1359   1.083       .  S
C1355      C1356   1.409       .  A
C1356      F1357   1.358       .  S
C1361      C1362   1.407       .  A
C1361      C1366   1.395       .  A
C1361      H1368   1.083       .  S
C1362      C1363   1.407       .  A
C1363      C1364   1.395       .  A
C1363      F1370   1.357       .  S
C1364      C1365   1.407       .  A
C1364      H1369   1.083       .  S
C1365      C1366   1.408       .  A
C1366      F1367   1.358       .  S
C1371      C1372   1.406       .  A
C1371      C1376   1.396   1_545  A
C1371      H1378   1.083       .  S
C1372      C1373   1.411       .  A
C1373      C1374   1.399   1_545  A
C1373      F1380   1.358       .  S
C1374      C1375   1.407       .  A
C1374      H1379   1.083       .  S
C1375      C1376   1.411       .  A
C1376      F1377   1.356       .  S
C1381      C1382   1.404       .  A
C1381      C1386   1.397       .  A
C1381      H1388   1.083       .  S
C1382      C1383   1.412       .  A
C1383      C1384   1.395       .  A
C1383      F1390   1.357       .  S
C1384      C1385   1.403       .  A
C1384      H1389   1.083       .  S
C1385      C1386   1.412       .  A
C1386      F1387   1.358       .  S
C1391      C1392   1.407       .  A
C1391      C1396   1.401       .  A
C1391      H1398   1.083       .  S
C1392      C1393   1.411       .  A
C1393      C1394   1.397       .  A
C1393      F1400   1.357       .  S
C1394      C1395   1.406       .  A
C1394      H1399   1.083       .  S
C1395      C1396   1.411       .  A
C1396      F1397   1.357       .  S
C1401      C1402   1.408   1_455  A
C1401      C1406   1.392       .  A
C1401      H1408   1.083       .  S
C1402      C1403   1.407       .  A
C1403      C1404   1.397       .  A
C1403      F1410   1.358       .  S
C1404      C1405   1.409       .  A
C1404      H1409   1.083       .  S
C1405      C1406   1.405   1_655  A
C1406      F1407   1.356       .  S
C1411      C1412   1.408       .  A
C1411      C1416   1.400       .  A
C1411      H1418   1.083       .  S
C1412      C1413   1.410       .  A
C1413      C1414   1.400       .  A
C1413      F1420   1.357       .  S
C1414      C1415   1.407       .  A
C1414      H1419   1.083       .  S
C1415      C1416   1.412       .  A
C1416      F1417   1.358       .  S
C1421      C1422   1.407       .  A
C1421      C1426   1.400       .  A
C1421      H1428   1.083       .  S
C1422      C1423   1.411       .  A
C1423      C1424   1.395       .  A
C1423      F1430   1.356       .  S
C1424      C1425   1.404       .  A
C1424      H1429   1.083       .  S
C1425      C1426   1.411       .  A
C1426      F1427   1.358       .  S
C1431      C1432   1.404       .  A
C1431      C1436   1.395       .  A
C1431      H1438   1.083       .  S
C1432      C1433   1.412       .  A
C1433      C1434   1.398       .  A
C1433      F1440   1.356       .  S
C1434      C1435   1.404       .  A
C1434      H1439   1.083       .  S
C1435      C1436   1.410       .  A
C1436      F1437   1.357       .  S
