geometry optimzed in LAMMPS
_audit_creation_date              2020-11-30 
_audit_creation_method            'lammps2cif' 
_symmetry_space_group_name_H-M    'P1' 
_symmetry_Int_Tables_number       1 
_symmetry_cell_setting            triclinic 
loop_ 
_symmetry_equiv_pos_as_xyz 
  x,y,z 
_cell_length_a                    25.44105484 
_cell_length_b                    25.44134697384448 
_cell_length_c                    25.436830427630976 
_cell_angle_alpha                 89.95375708518941 
_cell_angle_beta                  89.87615710105581 
_cell_angle_gamma                 90.05579695025004 
loop_ 
_atom_site_label 
_atom_site_type_symbol 
_atom_site_fract_x 
_atom_site_fract_y 
_atom_site_fract_z 
_atom_site_charge 
C1          C  0.12757803  0.72993567  0.95999773     0.79100
N2          N  0.15360397  0.73032936  0.00608915    -0.79200
C3          C  0.12745806  0.72986021  0.05220167     0.81600
N4          N  0.07357527  0.72986142  0.05236983    -0.79100
C5          C  0.04624209  0.73048070  0.00602447     0.81700
N6          N  0.07380818  0.72986010  0.95980111    -0.80800
C7          C  0.37710797  0.52884833  0.00964118     0.79100
N8          N  0.36299492  0.54938532  0.96212598    -0.79200
C9          C  0.33329373  0.59375197  0.96032213     0.81600
N10         N  0.31894059  0.61750203  0.00598868    -0.79100
C11         C  0.33214666  0.59659791  0.05320209     0.81700
N12         N  0.36118903  0.55234663  0.05478954    -0.80800
C13         C  0.90723301  0.21110362  0.04080533     0.79100
N14         N  0.96097406  0.21137659  0.04104083    -0.79200
C15         C  0.98856487  0.21019798  0.99487968     0.81600
N16         N  0.96123737  0.21003228  0.94850203    -0.79100
C17         C  0.90731749  0.20960927  0.94865338     0.81700
N18         N  0.88119017  0.20975838  0.99474662    -0.80800
C19         C  0.65806181  0.41267956  0.99603497     0.79100
N20         N  0.66975530  0.38973595  0.94896176    -0.79200
C21         C  0.69843241  0.34467540  0.94790954     0.81600
N22         N  0.71453800  0.32288002  0.99390293    -0.79100
C23         C  0.70392265  0.34624938  0.04066143     0.81700
N24         N  0.67556390  0.39097489  0.04148926    -0.80800
C25         C  0.77796843  0.92944291  0.11030204     0.79100
N26         N  0.77923524  0.97568238  0.13578861    -0.79200
C27         C  0.77824600  0.02143769  0.10921313     0.81600
N28         N  0.77686426  0.02139409  0.05549980    -0.79100
C29         C  0.77658373  0.97507498  0.02846028     0.81700
N30         N  0.77643240  0.92888021  0.05637427    -0.80800
C31         C  0.57609219  0.98006538  0.35893144     0.79100
N32         N  0.59684206  0.93219184  0.34653538    -0.79200
C33         C  0.64141077  0.92958947  0.31719815     0.81600
N34         N  0.66518525  0.97483600  0.30142569    -0.79100
C35         C  0.64414563  0.02238438  0.31287591     0.81700
N36         N  0.59961681  0.02478801  0.34165792    -0.80800
C37         C  0.25719816  0.01096097  0.88989822     0.79100
N38         N  0.25491238  0.96474109  0.86439855    -0.79200
C39         C  0.25492357  0.91898892  0.89102495     0.81600
N40         N  0.25655676  0.91913888  0.94477626    -0.79100
C41         C  0.25778910  0.96555026  0.97172893     0.81700
N42         N  0.25874215  0.01159667  0.94375478    -0.80800
C43         C  0.45840153  0.96463729  0.64235560     0.79100
N44         N  0.43700286  0.01097473  0.65806268    -0.79200
C45         C  0.39259909  0.01136316  0.68717875     0.81600
N46         N  0.36933031  0.96506166  0.70013384    -0.79100
C47         C  0.39090326  0.91844931  0.68572547     0.81700
N48         N  0.43551382  0.91825543  0.65642943    -0.80800
C49         C  0.90541112  0.73769842  0.05083503     0.79100
N50         N  0.95915529  0.73448539  0.05160052    -0.79200
C51         C  0.98709007  0.73228482  0.00562046     0.81600
N52         N  0.96012250  0.73183835  0.95910416    -0.79100
C53         C  0.90639067  0.73485515  0.95875730     0.81700
N54         N  0.87989456  0.73819017  0.00452480    -0.80800
C55         C  0.59797739  0.65420998  0.99706911     0.79100
N56         N  0.62113380  0.64544073  0.04446003    -0.79200
C57         C  0.67077098  0.62596632  0.04803025     0.81600
N58         N  0.69816630  0.61715399  0.00259109    -0.79100
C59         C  0.67458782  0.62246427  0.95460214     0.81700
N60         N  0.62491978  0.64169418  0.95269404    -0.80800
C61         C  0.12969340  0.20454047  0.95073555     0.79100
N62         N  0.15495980  0.20364443  0.99717085    -0.79200
C63         C  0.12819800  0.20624228  0.04283103     0.81600
N64         N  0.07445518  0.20899495  0.04220318    -0.79100
C65         C  0.04773292  0.20881730  0.99552540     0.81700
N66         N  0.07592470  0.20725801  0.94968562    -0.80800
C67         C  0.43826599  0.28634579  0.00245398     0.79100
N68         N  0.41262880  0.29828990  0.04789124    -0.79200
C69         C  0.36285537  0.31755145  0.04760255     0.81600
N70         N  0.33791827  0.32332211  0.00034242    -0.79100
C71         C  0.36395332  0.31485458  0.95409635     0.81700
N72         N  0.41362575  0.29547516  0.95602417    -0.80800
C73         C  0.77814025  0.92801939  0.88891277     0.79100
N74         N  0.77615457  0.92857547  0.94254642    -0.79200
C75         C  0.77688002  0.97503109  0.96927168     0.81600
N76         N  0.77844466  0.02105412  0.94108816    -0.79100
C77         C  0.78068814  0.02021471  0.88713597     0.81700
N78         N  0.78082183  0.97366503  0.86192236    -0.80800
C79         C  0.70053852  0.96113474  0.58078779     0.79100
N80         N  0.68809400  0.91842285  0.61015680    -0.79200
C81         C  0.66941194  0.92294645  0.65980559     0.81600
N82         N  0.66449937  0.97201797  0.68107458    -0.79100
C83         C  0.67313737  0.01597474  0.65126742     0.81700
N84         N  0.69224331  0.00980809  0.60156248    -0.80800
C85         C  0.25529586  0.01338744  0.11113141     0.79100
N86         N  0.25740214  0.01265203  0.05745548    -0.79200
C87         C  0.25757183  0.96600735  0.03088973     0.81600
N88         N  0.25697251  0.92010800  0.05921072    -0.79100
C89         C  0.25490348  0.92114666  0.11311325     0.81700
N90         N  0.25365855  0.96775970  0.13818601    -0.80800
C91         C  0.33592727  0.97190929  0.41808163     0.79100
N92         N  0.34615128  0.01714030  0.39153561    -0.79200
C93         C  0.36578073  0.01659945  0.34187738     0.81600
N94         N  0.37341421  0.96917375  0.31779144    -0.79100
C95         C  0.36700607  0.92319058  0.34496998     0.81700
N96         N  0.34758791  0.92541182  0.39467275    -0.80800
C97         C  0.97347821  0.08193730  0.76198237     0.79100
N98         N  0.97218229  0.02787701  0.76126337    -0.79200
C99         C  0.01803504  0.99937539  0.76080064     0.81600
N100        N  0.06467164  0.02583666  0.75955785    -0.79100
C101        C  0.06558726  0.07944235  0.75998742     0.81700
N102        N  0.02018485  0.10676246  0.76170164    -0.80800
C103        C  0.02528331  0.33154081  0.55943118     0.79100
N104        N  0.97758398  0.31954270  0.58086169    -0.79200
C105        C  0.97502483  0.29012160  0.62528876     0.81600
N106        N  0.02032556  0.27346540  0.64821953    -0.79100
C107        C  0.06787683  0.28431178  0.62639947     0.81700
N108        N  0.07011855  0.31354228  0.58207270    -0.80800
C109        C  0.06451197  0.85896158  0.76502562     0.79100
N110        N  0.06448294  0.91278004  0.76248394    -0.79200
C111        C  0.01803744  0.94013928  0.76177705     0.81600
N112        N  0.97193038  0.91253802  0.76219156    -0.79100
C113        C  0.97235110  0.85877146  0.76454138     0.81700
N114        N  0.01845029  0.83284188  0.76636868    -0.80800
C115        C  0.01629259  0.55203160  0.68432046     0.79100
N116        N  0.97074544  0.57761769  0.67329018    -0.79200
C117        C  0.97061871  0.62727835  0.65369184     0.81600
N118        N  0.01771850  0.65225818  0.64683206    -0.79100
C119        C  0.06406201  0.62608513  0.65416574     0.81700
N120        N  0.06254066  0.57645453  0.67363982    -0.80800
C121        C  0.06174648  0.85971884  0.24323288     0.79100
N122        N  0.01505733  0.83472367  0.24258473    -0.79200
C123        C  0.96950980  0.86192788  0.24280192     0.81600
N124        N  0.97031769  0.91552193  0.24289130    -0.79100
C125        C  0.01690285  0.94207998  0.24252362     0.81700
N126        N  0.06285295  0.91375390  0.24329466    -0.80800
C127        C  0.01003198  0.61212011  0.44289628     0.79100
N128        N  0.96531629  0.62910551  0.41939060    -0.79200
C129        C  0.96767080  0.65775246  0.37477750     0.81600
N130        N  0.01527612  0.66933448  0.35355322    -0.79100
C131        C  0.06054513  0.65384787  0.37735985     0.81700
N132        N  0.05788325  0.62469352  0.42204052    -0.80800
C133        C  0.97046164  0.08238321  0.23633690     0.79100
N134        N  0.97041233  0.02861875  0.23992099    -0.79200
C135        C  0.01681477  0.00122255  0.24041300     0.81600
N136        N  0.06289710  0.02871796  0.23856320    -0.79100
C137        C  0.06250095  0.08238339  0.23491233     0.81700
N138        N  0.01647936  0.10838619  0.23350115    -0.80800
C139        C  0.01690195  0.39056162  0.31768963     0.79100
N140        N  0.97115140  0.36517173  0.32844479    -0.79200
C141        C  0.97064585  0.31524676  0.34732066     0.81600
N142        N  0.01752744  0.28990812  0.35403251    -0.79100
C143        C  0.06417208  0.31572368  0.34701726     0.81700
N144        N  0.06304131  0.36559332  0.32787965    -0.80800
C145        C  0.27877109  0.51307754  0.39342312     0.79100
N146        N  0.27998733  0.46742375  0.36648917    -0.79200
C147        C  0.27904036  0.42085580  0.39172022     0.81600
N148        N  0.27771824  0.41991778  0.44566530    -0.79100
C149        C  0.27760451  0.46590037  0.47383344     0.81700
N150        N  0.27744215  0.51246089  0.44710289    -0.80800
C151        C  0.19856100  0.47267640  0.08530117     0.79100
N152        N  0.18776168  0.42616735  0.10910348    -0.79200
C153        C  0.16807422  0.42389452  0.15863464     0.81600
N154        N  0.16073614  0.46983767  0.18544974    -0.79100
C155        C  0.16770886  0.51728519  0.16111345     0.81700
N156        N  0.18745372  0.51794190  0.11143224    -0.80800
O157        O  0.20875665  0.73733615  0.09784193    -0.87600
O158        O  0.15410020  0.66899638  0.37806691    -0.87700
O159        O  0.15351989  0.60606337  0.19350536    -0.89400
O160        O  0.10690154  0.77695169  0.23622014    -0.88200
O161        O  0.15203333  0.85129069  0.26039634    -0.87800
O162        O  0.22746111  0.55794439  0.21271256    -0.89100
O163        O  0.10704817  0.67221556  0.30096907    -0.87600
O164        O  0.13405525  0.71268803  0.14269044    -0.87200
Zr165      Zr  0.16501538  0.69714420  0.23036867     2.84300
O166        O  0.19261690  0.74451752  0.30403009    -1.09200
O167        O  0.24003776  0.67096354  0.18357709    -1.09900
C168        C  0.15863066  0.72676337  0.10083846     1.05500
C169        C  0.11092450  0.66540125  0.35096076     1.05500
C170        C  0.18167504  0.56316815  0.19294093     1.08500
C171        C  0.11003151  0.82727319  0.24644793     1.06200
H172        H  0.19839340  0.61338662  0.29583452     0.31800
O173        O  0.21790028  0.64392867  0.28438483    -1.30100
H174        H  0.19132222  0.79210528  0.18036696     0.31500
O175        O  0.21318318  0.77029919  0.20232466    -1.31800
O176        O  0.32537153  0.69638511  0.41495626    -0.87600
O177        O  0.37929648  0.77990990  0.14201103    -0.89100
O178        O  0.28813054  0.55972503  0.31375909    -0.87600
O179        O  0.20505573  0.83174376  0.36721719    -0.87700
O180        O  0.24590238  0.87613919  0.19539525    -0.87400
O181        O  0.31630163  0.59867757  0.14549563    -0.87200
O182        O  0.42471065  0.66221417  0.27808389    -0.87600
O183        O  0.38052921  0.83319405  0.31535651    -0.87000
O184        O  0.38057596  0.58838113  0.25089852    -0.88100
O185        O  0.30448604  0.87956417  0.30013239    -0.87300
O186        O  0.26091483  0.60355364  0.38763489    -0.87700
O187        O  0.31180779  0.67443950  0.09648205    -0.87400
O188        O  0.27236388  0.83093578  0.12185726    -0.87000
O189        O  0.22782626  0.76016013  0.41748192    -0.87400
O190        O  0.39871638  0.72478958  0.37060083    -0.87700
O191        O  0.42686508  0.76637591  0.21766030    -0.89100
Zr192      Zr  0.24692808  0.69199654  0.35729135     2.83100
Zr193      Zr  0.28790649  0.74430270  0.15520891     2.83500
Zr194      Zr  0.29303658  0.61907550  0.23752533     2.84100
Zr195      Zr  0.23893576  0.81873160  0.27525170     2.83400
Zr196      Zr  0.36673858  0.74041477  0.28351116     2.84200
O197        O  0.31411208  0.79282248  0.22897227    -1.09600
O198        O  0.32089905  0.66584097  0.31078338    -1.09100
C199        C  0.37498501  0.70856941  0.41206014     1.05500
C200        C  0.42188685  0.78263948  0.17044181     1.08100
C201        C  0.27624225  0.56212117  0.36328550     1.05700
C202        C  0.20733991  0.80551372  0.41128255     1.06000
C203        C  0.25742553  0.87288741  0.14542589     1.05600
C204        C  0.31917034  0.62474959  0.10172143     1.05200
C205        C  0.42198181  0.61255559  0.26613717     1.05600
C206        C  0.35179992  0.87573393  0.31628883     1.05100
H207        H  0.37205328  0.68066948  0.18938270     0.31800
O208        O  0.34155962  0.69210339  0.20894713    -1.30700
H209        H  0.30350650  0.78732573  0.36041564     0.31800
O210        O  0.29249923  0.76731653  0.33014352    -1.32100
C211        C  0.40620296  0.22865091  0.45171198     0.79100
N212        N  0.46007773  0.22807413  0.45028216    -0.79200
C213        C  0.48854569  0.22809620  0.49591014     0.81600
N214        N  0.46209597  0.22740692  0.54278414    -0.79100
C215        C  0.40833646  0.22803080  0.54378472     0.81700
N216        N  0.38119407  0.22906423  0.49834975    -0.80800
C217        C  0.15415552  0.03040554  0.50007045     0.79100
N218        N  0.16738612  0.05243594  0.45294527    -0.79200
C219        C  0.19790767  0.09627320  0.45177366     0.81600
N220        N  0.21431859  0.11790212  0.49775644    -0.79100
C221        C  0.20221744  0.09543795  0.54466469     0.81700
N222        N  0.17196405  0.05183233  0.54559006    -0.80800
O223        O  0.25052515  0.05595321  0.80794594    -0.87600
O224        O  0.32971585  0.32901108  0.86567480    -0.87700
O225        O  0.38302744  0.15058864  0.85988026    -0.89400
O226        O  0.21152123  0.19491045  0.90622995    -0.88200
O227        O  0.13812645  0.22112950  0.86067437    -0.87800
O228        O  0.43266900  0.17401226  0.78801211    -0.89100
O229        O  0.31981919  0.25115407  0.91072323    -0.87600
O230        O  0.27552585  0.10082917  0.88207711    -0.87200
Zr231      Zr  0.29120943  0.18749623  0.84951418     2.84300
O232        O  0.24236320  0.26189047  0.82457579    -1.09200
O233        O  0.31940068  0.14194102  0.77526192    -1.09900
C234        C  0.26095839  0.05909586  0.85803771     1.05500
C235        C  0.33408107  0.29919338  0.90735903     1.05500
C236        C  0.42684876  0.15235320  0.83289143     1.08500
C237        C  0.16172321  0.20649811  0.90266651     1.06200
H238        H  0.37539754  0.25333858  0.81802939     0.31800
O239        O  0.34470183  0.24269886  0.79846660    -1.30100
H240        H  0.19538130  0.13987645  0.82321061     0.31500
O241        O  0.21761138  0.16174037  0.80153575    -1.31800
O242        O  0.29161980  0.37347997  0.69431602    -0.87600
O243        O  0.21992541  0.09476466  0.63703350    -0.89100
O244        O  0.42668062  0.27764040  0.72744150    -0.87600
O245        O  0.14944979  0.32652794  0.79868261    -0.87700
O246        O  0.11180838  0.15890472  0.76720191    -0.87400
O247        O  0.39175774  0.10472105  0.70066626    -0.87200
O248        O  0.32835256  0.23642748  0.59011349    -0.87600
O249        O  0.16009133  0.26648480  0.62757932    -0.87000
O250        O  0.40238277  0.21094975  0.63453552    -0.88100
O251        O  0.11118824  0.25871817  0.70310986    -0.87300
O252        O  0.38214322  0.35030781  0.75699043    -0.87700
O253        O  0.31613290  0.05566663  0.70813534    -0.87400
O254        O  0.15639210  0.08435467  0.74273658    -0.87000
O255        O  0.22562218  0.37513702  0.79745442    -0.87400
O256        O  0.26648509  0.32905425  0.61970763    -0.87700
O257        O  0.22711371  0.17121772  0.58928685    -0.89100
Zr258      Zr  0.29578326  0.31643550  0.77317125     2.83100
Zr259      Zr  0.24545818  0.11388238  0.72894951     2.83500
Zr260      Zr  0.37124833  0.19756798  0.72281123     2.84100
Zr261      Zr  0.17022405  0.23523583  0.77343876     2.83400
Zr262      Zr  0.25123522  0.24080264  0.64864222     2.84200
O263        O  0.19729786  0.18698496  0.70021208    -1.09600
O264        O  0.32267118  0.27033361  0.69792464    -1.09100
C265        C  0.28088683  0.37056988  0.64439213     1.05500
C266        C  0.21745484  0.12177540  0.59372599     1.08100
C267        C  0.42352663  0.32711869  0.73997593     1.05700
C268        C  0.17566081  0.37002374  0.80348410     1.06000
C269        C  0.11462552  0.10918627  0.75663961     1.05600
C270        C  0.36561051  0.06077363  0.69953939     1.05200
C271        C  0.37806895  0.22542546  0.59284170     1.05600
C272        C  0.11632565  0.26864002  0.65376332     1.05100
H273        H  0.31125427  0.14744694  0.64506354     0.31800
O274        O  0.29899094  0.16712171  0.67513163    -1.30700
H275        H  0.20377381  0.31936284  0.71026468     0.31800
O276        O  0.22359249  0.28927443  0.72214172    -1.32100
C277        C  0.40628535  0.70568323  0.46045633     0.79100
N278        N  0.38036800  0.70377317  0.50663219    -0.79200
C279        C  0.40652144  0.70526613  0.55260667     0.81600
N280        N  0.46029115  0.70788610  0.55260280    -0.79100
C281        C  0.48756504  0.70883281  0.50617677     0.81700
N282        N  0.45999951  0.70842330  0.46005602    -0.80800
C283        C  0.10004067  0.78843179  0.50024645     0.79100
N284        N  0.12649912  0.80135884  0.45580057    -0.79200
C285        C  0.17627430  0.82006436  0.45721951     0.81600
N286        N  0.20055668  0.82478044  0.50487954    -0.79100
C287        C  0.17359731  0.81586622  0.55054999     0.81700
N288        N  0.12369588  0.79667557  0.54748790    -0.80800
C289        C  0.27991096  0.51121574  0.61471415     0.79100
N290        N  0.28296340  0.46500861  0.64027768    -0.79200
C291        C  0.28287364  0.41922269  0.61375817     0.81600
N292        N  0.28036505  0.41931906  0.56005582    -0.79100
C293        C  0.27839381  0.46565496  0.53299779     0.81700
N294        N  0.27755388  0.51176125  0.56086039    -0.80800
C295        C  0.07782163  0.46063957  0.86059394     0.79100
N296        N  0.10205781  0.41592494  0.84465341    -0.79200
C297        C  0.14707526  0.41826876  0.81673751     0.81600
N298        N  0.16784739  0.46584885  0.80453070    -0.79100
C299        C  0.14333315  0.51117328  0.81883936     0.81700
N300        N  0.09831641  0.50856197  0.84758527    -0.80800
O301        O  0.20870422  0.73690960  0.91458372    -0.87600
O302        O  0.15472954  0.65358580  0.64265466    -0.87700
O303        O  0.10972305  0.77786933  0.77544814    -0.89400
O304        O  0.14350326  0.60528092  0.80504920    -0.88200
O305        O  0.21941608  0.55676940  0.79819157    -0.87800
O306        O  0.15504130  0.85060256  0.74687208    -0.89100
O307        O  0.10495650  0.67649449  0.71454961    -0.87600
O308        O  0.13454903  0.71275500  0.86950239    -0.87200
Zr309      Zr  0.16560050  0.69789649  0.78151770     2.84300
O310        O  0.21748608  0.64210185  0.72910173    -1.09200
O311        O  0.21490917  0.77029646  0.80668763    -1.09900
C312        C  0.15873603  0.72681701  0.91140369     1.05500
C313        C  0.11081528  0.65585854  0.66920006     1.05500
C314        C  0.11311769  0.82742191  0.76289848     1.08500
C315        C  0.16982621  0.56146003  0.80688155     1.06200
H316        H  0.16267514  0.75402456  0.68650379     0.31800
O317        O  0.19315265  0.74311952  0.70622327    -1.30100
H318        H  0.22557803  0.64769445  0.85946848     0.31500
O319        O  0.23792730  0.66732770  0.82936042    -1.31800
O320        O  0.32545347  0.69589370  0.59795856    -0.87600
O321        O  0.37731287  0.76742276  0.87817768    -0.89100
O322        O  0.20754449  0.82963283  0.63922426    -0.87600
O323        O  0.28626674  0.55602093  0.69676948    -0.87700
O324        O  0.31721751  0.59272221  0.86717910    -0.87400
O325        O  0.24643184  0.87343998  0.81049745    -0.87200
O326        O  0.38933861  0.82617645  0.70387795    -0.87600
O327        O  0.42553800  0.65869094  0.73775720    -0.87000
O328        O  0.31300538  0.87437133  0.70581884    -0.88100
O329        O  0.38049540  0.58431270  0.76246472    -0.87300
O330        O  0.21757314  0.75196592  0.59407338    -0.87700
O331        O  0.27143127  0.82882987  0.88510379    -0.87400
O332        O  0.31060108  0.66947300  0.91428698    -0.87000
O333        O  0.26192847  0.60128822  0.62262662    -0.87400
O334        O  0.39929180  0.72132802  0.64320079    -0.87700
O335        O  0.42520039  0.76068224  0.80192627    -0.89100
Zr336      Zr  0.24653603  0.68816050  0.65512401     2.83100
Zr337      Zr  0.28636041  0.74059334  0.85614687     2.83500
Zr338      Zr  0.24193644  0.81678729  0.73153916     2.84100
Zr339      Zr  0.29127125  0.61380454  0.77578139     2.83400
Zr340      Zr  0.36752817  0.73539262  0.73091834     2.84200
O341        O  0.33998146  0.68691898  0.80417623    -1.09600
O342        O  0.29537778  0.76248268  0.68005722    -1.09100
C343        C  0.37528024  0.70720430  0.60120853     1.05500
C344        C  0.42072115  0.77039261  0.85142569     1.08100
C345        C  0.20301505  0.79988277  0.59755298     1.05700
C346        C  0.27614587  0.55936655  0.64662323     1.06000
C347        C  0.31985649  0.61984421  0.91031755     1.05600
C348        C  0.25711362  0.87039385  0.86042471     1.05200
C349        C  0.36295325  0.86950501  0.69894345     1.05600
C350        C  0.42244925  0.60896189  0.74853312     1.05100
H351        H  0.33398626  0.81929173  0.79410212     0.31800
O352        O  0.31408652  0.78916717  0.78239812    -1.30700
H353        H  0.34192025  0.63999904  0.68149443     0.31800
O354        O  0.31978810  0.66184515  0.70321532    -1.32100
C355        C  0.75557390  0.42924621  0.38693977     0.79100
N356        N  0.75707333  0.42875310  0.44087246    -0.79200
C357        C  0.75734025  0.47497547  0.46866912     0.81600
N358        N  0.75741195  0.52127736  0.44150869    -0.79100
C359        C  0.75604616  0.52134931  0.38778876     0.81700
N360        N  0.75470878  0.47552870  0.36130695    -0.80800
C361        C  0.95572072  0.48056239  0.13888184     0.79100
N362        N  0.93195461  0.52531667  0.15554200    -0.79200
C363        C  0.88710355  0.52291666  0.18382553     0.81600
N364        N  0.86599062  0.47531477  0.19536335    -0.79100
C365        C  0.89004202  0.43003696  0.18018481     0.81700
N366        N  0.93492090  0.43268897  0.15137542    -0.80800
C367        C  0.56251837  0.58222445  0.26543352     0.79100
N368        N  0.51641211  0.60795175  0.26840951    -0.79200
C369        C  0.47047566  0.58166731  0.26788726     0.81600
N370        N  0.47029659  0.52796669  0.26505878    -0.79100
C371        C  0.51653462  0.50077432  0.26315492     0.81700
N372        N  0.56280231  0.52844531  0.26267554    -0.80800
C373        C  0.51371340  0.88842049  0.18561319     0.79100
N374        N  0.46811625  0.86293843  0.17498669    -0.79200
C375        C  0.46766766  0.81362821  0.15478499     0.81600
N376        N  0.51455299  0.78880688  0.14656972    -0.79100
C377        C  0.56106371  0.81482495  0.15343768     0.81700
N378        N  0.55990260  0.86416256  0.17385915    -0.80800
O379        O  0.78508802  0.88469948  0.19256035    -0.87600
O380        O  0.70337717  0.61253841  0.13742689    -0.87700
O381        O  0.82382088  0.74764754  0.09568382    -0.89400
O382        O  0.65156973  0.78696738  0.13985069    -0.88200
O383        O  0.60266221  0.76307491  0.21208919    -0.87800
O384        O  0.89714483  0.72090331  0.14090428    -0.89100
O385        O  0.71514230  0.68950005  0.09140627    -0.87600
O386        O  0.75967061  0.83951310  0.11879274    -0.87200
Zr387      Zr  0.74396467  0.75320558  0.15223465     2.84300
O388        O  0.69055401  0.69839053  0.20374723    -1.09200
O389        O  0.81733542  0.77967084  0.20005252    -1.09900
C390        C  0.77459850  0.88131047  0.14245094     1.05500
C391        C  0.69971188  0.64191293  0.09534830     1.05500
C392        C  0.87358748  0.73600246  0.09907953     1.08500
C393        C  0.60797434  0.78445597  0.16700271     1.06200
H394        H  0.80423063  0.65951142  0.14673170     0.31800
O395        O  0.79253211  0.67873116  0.17732577    -1.30100
H396        H  0.69552063  0.82959460  0.21507589     0.31500
O397        O  0.71540035  0.79931526  0.22625319    -1.31800
O398        O  0.74698590  0.56710793  0.30740721    -0.87600
O399        O  0.81513896  0.84856143  0.36411963    -0.89100
O400        O  0.88519604  0.61455110  0.20303707    -0.87600
O401        O  0.60725076  0.66381110  0.27363276    -0.87700
O402        O  0.64170035  0.83570141  0.30390114    -0.87400
O403        O  0.92314438  0.78261193  0.23368882    -0.87200
O404        O  0.87567267  0.67521928  0.37346792    -0.87600
O405        O  0.70768744  0.70468647  0.41230788    -0.87000
O406        O  0.92429006  0.68187538  0.29761823    -0.88100
O407        O  0.63323694  0.72900968  0.36783509    -0.87300
O408        O  0.80895146  0.56607152  0.20449048    -0.87700
O409        O  0.87845034  0.85693587  0.25872486    -0.87400
O410        O  0.71763575  0.88442424  0.29684626    -0.87000
O411        O  0.65253531  0.59084968  0.24591068    -0.87400
O412        O  0.77204446  0.61180510  0.38191032    -0.87700
O413        O  0.80832594  0.77182999  0.41140341    -0.89100
Zr414      Zr  0.73908156  0.62473423  0.22935578     2.83100
Zr415      Zr  0.78918955  0.82779410  0.27258245     2.83500
Zr416      Zr  0.86484696  0.70611087  0.22792397     2.84100
Zr417      Zr  0.66359200  0.74357204  0.27930757     2.83400
Zr418      Zr  0.78445164  0.70081726  0.35317011     2.84200
O419        O  0.73628385  0.77416655  0.32664213    -1.09600
O420        O  0.81161773  0.65226162  0.27954118    -1.09100
C421        C  0.75825258  0.57003395  0.35719556     1.05500
C422        C  0.81783578  0.82141266  0.40730701     1.08100
C423        C  0.85886908  0.57112837  0.19812761     1.05700
C424        C  0.61071751  0.61409772  0.26185690     1.06000
C425        C  0.66807317  0.87951010  0.30579831     1.05600
C426        C  0.92030085  0.83220970  0.24480051     1.05200
C427        C  0.91928243  0.67260240  0.34709947     1.05600
C428        C  0.65776111  0.71478046  0.40953705     1.05100
H429        H  0.86759190  0.76653573  0.32089746     0.31800
O430        O  0.83756811  0.75470373  0.30097333    -1.30700
H431        H  0.69104520  0.64888211  0.32666195     0.31800
O432        O  0.71251092  0.67113953  0.30462137    -1.32100
C433        C  0.62851040  0.70831984  0.55050319     0.79100
N434        N  0.65395944  0.70879224  0.50404800    -0.79200
C435        C  0.62722221  0.71082437  0.45839111     0.81600
N436        N  0.57347370  0.71142026  0.45898152    -0.79100
C437        C  0.54664734  0.70994503  0.50560680     0.81700
N438        N  0.57466764  0.70914088  0.55147590    -0.80800
C439        C  0.87553975  0.91345220  0.50535167     0.79100
N440        N  0.86062967  0.89265482  0.45823472    -0.79200
C441        C  0.83236988  0.84732176  0.45709191     0.81600
N442        N  0.82031373  0.82279188  0.50304872    -0.79100
C443        C  0.83430027  0.84388102  0.54994235     0.81700
N444        N  0.86178547  0.88923013  0.55090123    -0.80800
C445        C  0.56339025  0.58092552  0.74042728     0.79100
N446        N  0.56444493  0.52693580  0.74090833    -0.79200
C447        C  0.51852517  0.49862320  0.74253367     0.81600
N448        N  0.47200124  0.52522796  0.74512670    -0.79100
C449        C  0.47134046  0.57888218  0.74496003     0.81700
N450        N  0.51686485  0.60597737  0.74211196    -0.80800
C451        C  0.51843118  0.82788375  0.94430742     0.79100
N452        N  0.56398397  0.81409158  0.92021444    -0.79200
C453        C  0.56324643  0.78690278  0.87480475     0.81600
N454        N  0.51643453  0.77308858  0.85343345    -0.79100
C455        C  0.47033838  0.78517908  0.87770507     0.81700
N456        N  0.47129305  0.81330856  0.92319098    -0.80800
C457        C  0.75560734  0.42816660  0.60843755     0.79100
N458        N  0.75359950  0.47381830  0.63524368    -0.79200
C459        C  0.75430189  0.52028102  0.60989801     0.81600
N460        N  0.75632955  0.52108103  0.55593667    -0.79100
C461        C  0.75710418  0.47500256  0.52788247     0.81700
N462        N  0.75739800  0.42858510  0.55477773    -0.80800
C463        C  0.83553721  0.46764070  0.91656002     0.79100
N464        N  0.84663655  0.51456980  0.89368020    -0.79200
C465        C  0.86661103  0.51767350  0.84427609     0.81600
N466        N  0.87397719  0.47219436  0.81667592    -0.79100
C467        C  0.86668362  0.42439072  0.84011743     0.81700
N468        N  0.84662784  0.42288227  0.88963041    -0.80800
O469        O  0.82583150  0.74325454  0.91266123    -0.87600
O470        O  0.88220152  0.66119794  0.63966866    -0.87700
O471        O  0.88019737  0.60756049  0.81455643    -0.89400
O472        O  0.92659919  0.77781202  0.77393748    -0.88200
O473        O  0.88236869  0.85184600  0.74740315    -0.87800
O474        O  0.80400878  0.56116844  0.79965151    -0.89100
O475        O  0.92863935  0.67393375  0.71615715    -0.87600
O476        O  0.89954514  0.71526316  0.86877745    -0.87200
Zr477      Zr  0.86788683  0.69998331  0.78134939     2.84300
O478        O  0.84330211  0.74829557  0.70659426    -1.09200
O479        O  0.79333306  0.67291488  0.82772652    -1.09900
C480        C  0.87549599  0.73127036  0.91012876     1.05500
C481        C  0.92443745  0.65817080  0.66872028     1.05500
C482        C  0.85126170  0.56513974  0.81590107     1.08500
C483        C  0.92390728  0.82756951  0.76215441     1.06200
H484        H  0.83440923  0.61638913  0.71611874     0.31800
O485        O  0.81530398  0.64740037  0.72675364    -1.30100
H486        H  0.84378991  0.79682138  0.82936645     0.31500
O487        O  0.82199408  0.77472202  0.80760706    -1.31800
O488        O  0.71021934  0.70050450  0.59575056    -0.87600
O489        O  0.65568647  0.77176055  0.87349670    -0.89100
O490        O  0.74501195  0.56550431  0.69199004    -0.87600
O491        O  0.81859850  0.84198623  0.64225659    -0.87700
O492        O  0.78809642  0.88126478  0.80961055    -0.87400
O493        O  0.70460404  0.60925058  0.86477415    -0.87200
O494        O  0.60865865  0.66345108  0.73198247    -0.87600
O495        O  0.65428249  0.83498078  0.69259209    -0.87000
O496        O  0.65342849  0.58916930  0.75671818    -0.88100
O497        O  0.72745339  0.88325702  0.71417968    -0.87300
O498        O  0.77363677  0.61002037  0.61873985    -0.87700
O499        O  0.72885679  0.68045269  0.91471523    -0.87400
O500        O  0.76050446  0.83746489  0.88351247    -0.87000
O501        O  0.81540002  0.76582009  0.59380473    -0.87400
O502        O  0.63584922  0.72656798  0.64022303    -0.87700
O503        O  0.60762515  0.76829102  0.79698032    -0.89100
Zr504      Zr  0.79015770  0.69604248  0.65252085     2.83100
Zr505      Zr  0.74813538  0.74841658  0.85407951     2.83500
Zr506      Zr  0.73963981  0.62192877  0.77268534     2.84100
Zr507      Zr  0.79448194  0.82145950  0.73411070     2.83400
Zr508      Zr  0.66658610  0.74340069  0.72725908     2.84200
O509        O  0.71951272  0.79650350  0.78106708    -1.09600
O510        O  0.71499727  0.67052438  0.69943313    -1.09100
C511        C  0.66015039  0.71135013  0.59875038     1.05500
C512        C  0.61227190  0.77514693  0.84686994     1.08100
C513        C  0.75716845  0.56852478  0.64211947     1.05700
C514        C  0.82227127  0.81565947  0.59872808     1.06000
C515        C  0.77564162  0.87896572  0.85898378     1.05600
C516        C  0.70686699  0.63575910  0.90871553     1.05200
C517        C  0.61167645  0.61319588  0.74245092     1.05600
C518        C  0.68203197  0.87811703  0.69349810     1.05100
H519        H  0.66272743  0.68482381  0.82031557     0.31800
O520        O  0.69343933  0.69603370  0.80098873    -1.30700
H521        H  0.73070899  0.78909004  0.64934269     0.31800
O522        O  0.74160888  0.76941196  0.67988207    -1.32100
C523        C  0.47191420  0.35928943  0.26303204     0.79100
N524        N  0.51854803  0.33437521  0.26182222    -0.79200
C525        C  0.56405540  0.36164496  0.25956575     0.81600
N526        N  0.56328433  0.41525732  0.25945554    -0.79100
C527        C  0.51669509  0.44168135  0.26167415     0.81700
N528        N  0.47080854  0.41326993  0.26274597    -0.80800
C529        C  0.51554687  0.11221648  0.05939558     0.79100
N530        N  0.47014338  0.12790089  0.08246453    -0.79200
C531        C  0.47115144  0.15770778  0.12617824     0.81600
N532        N  0.51808815  0.17202585  0.14695893    -0.79100
C533        C  0.56403338  0.15798636  0.12344790     0.81700
N534        N  0.56276707  0.12736793  0.07972551    -0.80800
O535        O  0.82620776  0.20441065  0.08612224    -0.87600
O536        O  0.88059764  0.28553870  0.35956744    -0.87700
O537        O  0.89017605  0.33601035  0.19402440    -0.89400
O538        O  0.92556609  0.16374785  0.22683246    -0.88200
O539        O  0.87990985  0.09044078  0.25341617    -0.87800
O540        O  0.81419430  0.38446182  0.20116070    -0.89100
O541        O  0.92977975  0.26521245  0.28643815    -0.87600
O542        O  0.90028254  0.22900834  0.13116283    -0.87200
Zr543      Zr  0.86929257  0.24343073  0.21931775     2.84300
O544        O  0.84169868  0.19756543  0.29431782    -1.09200
O545        O  0.79661105  0.27340050  0.17170081    -1.09900
C546        C  0.87610866  0.21475312  0.08929307     1.05500
C547        C  0.92421647  0.28466411  0.33237729     1.05500
C548        C  0.86368190  0.37976231  0.19202278     1.08500
C549        C  0.92203134  0.11398582  0.23860828     1.06200
H550        H  0.83702744  0.32912852  0.28336446     0.31800
O551        O  0.81721671  0.29882608  0.27205272    -1.30100
H552        H  0.84239708  0.14866561  0.17154205     0.31500
O553        O  0.82060347  0.17079273  0.19331779    -1.31800
O554        O  0.70880526  0.24708591  0.40207956    -0.87600
O555        O  0.65725026  0.17412659  0.12290009    -0.89100
O556        O  0.74809827  0.38431545  0.30485225    -0.87600
O557        O  0.82737147  0.11096776  0.35967049    -0.87700
O558        O  0.78654445  0.06681059  0.18967117    -0.87400
O559        O  0.71987976  0.34650346  0.13320992    -0.87200
O560        O  0.61007724  0.28214467  0.26613424    -0.87600
O561        O  0.64642136  0.11403607  0.29420776    -0.87000
O562        O  0.65456302  0.35640008  0.24023996    -0.88100
O563        O  0.72244191  0.06540750  0.29196234    -0.87300
O564        O  0.77270547  0.33891964  0.37878523    -0.87700
O565        O  0.72740246  0.27029706  0.08528385    -0.87400
O566        O  0.76189633  0.11162520  0.11512828    -0.87000
O567        O  0.81343739  0.18697826  0.40652936    -0.87400
O568        O  0.63568659  0.21895749  0.35736109    -0.87700
O569        O  0.60937855  0.18139171  0.19913196    -0.89100
Zr570      Zr  0.78827588  0.25230571  0.34566972     2.83100
Zr571      Zr  0.74864679  0.19999897  0.14449619     2.83500
Zr572      Zr  0.74354676  0.32690178  0.22539159     2.84100
Zr573      Zr  0.79300883  0.12399961  0.26796102     2.83400
Zr574      Zr  0.66772338  0.20534202  0.26969239     2.84200
O575        O  0.72064913  0.15143912  0.21786531    -1.09600
O576        O  0.71512535  0.27878917  0.29776808    -1.09100
C577        C  0.65927952  0.23460738  0.39903623     1.05500
C578        C  0.61378654  0.17181392  0.14965844     1.08100
C579        C  0.75839859  0.38091171  0.35498108     1.05700
C580        C  0.82965754  0.13972661  0.40208812     1.06000
C581        C  0.77574768  0.06991135  0.13980800     1.05600
C582        C  0.71823703  0.31974210  0.08977345     1.05200
C583        C  0.61297920  0.33181203  0.25536813     1.05600
C584        C  0.67255335  0.07053445  0.29860864     1.05100
H585        H  0.66517019  0.26591886  0.17650205     0.31800
O586        O  0.69510751  0.25396335  0.19648007    -1.30700
H587        H  0.72789141  0.15848539  0.35050989     0.31800
O588        O  0.73983549  0.17787211  0.32007434    -1.32100
C589        C  0.47185526  0.35850977  0.73660708     0.79100
N590        N  0.51767979  0.33230680  0.73321874    -0.79200
C591        C  0.56382746  0.35808350  0.73436707     0.81600
N592        N  0.56445572  0.41181564  0.73811248    -0.79100
C593        C  0.51845373  0.43946138  0.74046597     0.81700
N594        N  0.47201272  0.41219114  0.74045063    -0.80800
C595        C  0.52229585  0.04777548  0.81963366     0.79100
N596        N  0.56767071  0.07432961  0.82872727    -0.79200
C597        C  0.56755115  0.12470730  0.84616191     0.81600
N598        N  0.52036647  0.14933147  0.85307552    -0.79100
C599        C  0.47406067  0.12258460  0.84747854     0.81700
N600        N  0.47574000  0.07219318  0.82978310    -0.80800
C601        C  0.62939209  0.23400077  0.53990772     0.79100
N602        N  0.57570064  0.23027781  0.54069429    -0.79200
C603        C  0.54769252  0.22999954  0.49482585     0.81600
N604        N  0.57456558  0.23212605  0.44819397    -0.79100
C605        C  0.62828179  0.23599199  0.44780104     0.81700
N606        N  0.65483476  0.23726224  0.49357617    -0.80800
C607        C  0.93539078  0.15601111  0.49339475     0.79100
N608        N  0.90985717  0.14468471  0.44806224    -0.79200
C609        C  0.86046725  0.12464436  0.44808311     0.81600
N610        N  0.83565344  0.11718595  0.49521457    -0.79100
C611        C  0.86180119  0.12456477  0.54155662     0.81700
N612        N  0.91115777  0.14499149  0.53987186    -0.80800
O613        O  0.82600900  0.20187777  0.90266887    -0.87600
O614        O  0.88151217  0.27540787  0.62458999    -0.87700
O615        O  0.92816142  0.16490981  0.76837976    -0.89400
O616        O  0.88204450  0.33640053  0.80689877    -0.88200
O617        O  0.80706525  0.38326358  0.78853995    -0.87800
O618        O  0.88408242  0.09051706  0.74266585    -0.89100
O619        O  0.92855077  0.27125592  0.70168406    -0.87600
O620        O  0.90064822  0.22818432  0.85867184    -0.87200
Zr621      Zr  0.86999559  0.24506674  0.77145720     2.84300
O622        O  0.81678989  0.29808030  0.71750706    -1.09200
O623        O  0.82170567  0.17178345  0.79844398    -1.09900
C624        C  0.87611289  0.21283761  0.90002517     1.05500
C625        C  0.92467329  0.27879998  0.65178526     1.05500
C626        C  0.92541003  0.11452968  0.75814943     1.08500
C627        C  0.85325438  0.37881251  0.80769135     1.06200
H628        H  0.87506322  0.18715472  0.67792577     0.31800
O629        O  0.84414007  0.19787709  0.69714780    -1.30100
H630        H  0.80473992  0.29012274  0.84915851     0.31500
O631        O  0.79444310  0.27039017  0.81846087    -1.31800
O632        O  0.71072324  0.24332944  0.58545395    -0.87600
O633        O  0.65512476  0.16069950  0.85903873    -0.89100
O634        O  0.83360833  0.11141367  0.63237655    -0.87600
O635        O  0.74678772  0.38154967  0.68814623    -0.87700
O636        O  0.71409087  0.34346650  0.85495355    -0.87400
O637        O  0.79107007  0.06583776  0.80504834    -0.87200
O638        O  0.65877876  0.10642459  0.68117726    -0.87600
O639        O  0.60969048  0.27690259  0.72416367    -0.87000
O640        O  0.73632250  0.06176337  0.69363707    -0.88100
O641        O  0.65356516  0.35134945  0.75042261    -0.87300
O642        O  0.81039199  0.18351902  0.58316379    -0.87700
O643        O  0.76311648  0.11031510  0.87855511    -0.87400
O644        O  0.71900874  0.26724414  0.90314219    -0.87000
O645        O  0.77439704  0.33817163  0.61411718    -0.87400
O646        O  0.63718960  0.21468865  0.62947931    -0.87700
O647        O  0.60923438  0.16979257  0.78168284    -0.89100
Zr648      Zr  0.78894433  0.24997577  0.64408676     2.83100
Zr649      Zr  0.74638315  0.19665024  0.84545746     2.83500
Zr650      Zr  0.79829530  0.12309079  0.72473503     2.84100
Zr651      Zr  0.74118891  0.32181606  0.76410261     2.83400
Zr652      Zr  0.66901844  0.19907453  0.71638044     2.84200
O653        O  0.69277121  0.24796113  0.79111046    -1.09600
O654        O  0.74422230  0.17384511  0.67002522    -1.09100
C655        C  0.66104755  0.23088634  0.58811623     1.05500
C656        C  0.61332176  0.15564552  0.82974064     1.08100
C657        C  0.83155194  0.13844316  0.58864821     1.05700
C658        C  0.75877271  0.37934943  0.63861968     1.06000
C659        C  0.71063437  0.31700901  0.89843387     1.05600
C660        C  0.77885064  0.06869603  0.85494990     1.05200
C661        C  0.68879243  0.06474093  0.67805555     1.05600
C662        C  0.61218128  0.32678000  0.73590980     1.05100
H663        H  0.70354399  0.11609549  0.78132453     0.31800
O664        O  0.72232984  0.14744186  0.77094287    -1.30700
H665        H  0.69246709  0.29642440  0.66882745     0.31800
O666        O  0.71450199  0.27458868  0.69059707    -1.32100
O667        O  0.20843662  0.19725541  0.08928796    -0.87600
O668        O  0.15291258  0.28172903  0.36078247    -0.87700
O669        O  0.10835644  0.16319215  0.22528139    -0.89400
O670        O  0.15422923  0.33422390  0.18854657    -0.88200
O671        O  0.23064073  0.38024731  0.20349942    -0.87800
O672        O  0.15209826  0.08906359  0.25228377    -0.89100
O673        O  0.10621601  0.26914871  0.28442899    -0.87600
O674        O  0.13490720  0.22595880  0.13284442    -0.87200
Zr675      Zr  0.16681656  0.24127269  0.22013829     2.84300
O676        O  0.21972799  0.29291664  0.27509131    -1.09200
O677        O  0.21201553  0.16621773  0.19371835    -1.09900
C678        C  0.15887126  0.20951149  0.09164704     1.05500
C679        C  0.11069753  0.28530835  0.33167434     1.05500
C680        C  0.11089497  0.11342744  0.23697850     1.08500
C681        C  0.18323312  0.37660447  0.18750353     1.06200
H682        H  0.16025431  0.18139092  0.31416852     0.31800
O683        O  0.19108636  0.19258486  0.29494874    -1.30100
H684        H  0.23112444  0.28838483  0.14326459     0.31500
O685        O  0.24137135  0.26836489  0.17382684    -1.31800
O686        O  0.32399238  0.23677194  0.40692399    -0.87600
O687        O  0.37875945  0.17165470  0.12797359    -0.89100
O688        O  0.21391343  0.09739878  0.35869029    -0.87600
O689        O  0.28802078  0.37579543  0.30955624    -0.87700
O690        O  0.33319100  0.33007067  0.13796531    -0.87400
O691        O  0.24493244  0.06009191  0.19063604    -0.87200
O692        O  0.37979795  0.10535185  0.30955817    -0.87600
O693        O  0.42641413  0.27660282  0.27015044    -0.87000
O694        O  0.30518373  0.05771226  0.29145219    -0.88100
O695        O  0.38183020  0.35123026  0.24605769    -0.87300
O696        O  0.21823668  0.17354841  0.40700513    -0.87700
O697        O  0.27309617  0.10400227  0.11706079    -0.87400
O698        O  0.30900444  0.25926473  0.08737730    -0.87000
O699        O  0.26071123  0.33072360  0.38304311    -0.87400
O700        O  0.39843203  0.21173118  0.36190158    -0.87700
O701        O  0.42706043  0.17573275  0.20422970    -0.89100
Zr702      Zr  0.24439148  0.24431385  0.34942985     2.83100
Zr703      Zr  0.28609659  0.19250658  0.14771410     2.83500
Zr704      Zr  0.23947288  0.11911337  0.26714448     2.84100
Zr705      Zr  0.29531320  0.31894662  0.22930086     2.83400
Zr706      Zr  0.36769560  0.19703898  0.27461377     2.84200
O707        O  0.34068322  0.24444132  0.20099809    -1.09600
O708        O  0.29238282  0.17091020  0.32140899    -1.09100
C709        C  0.37412472  0.22589869  0.40371200     1.05500
C710        C  0.42232748  0.16931478  0.15433010     1.08100
C711        C  0.21043214  0.12375633  0.40224598     1.05700
C712        C  0.27620066  0.37257947  0.35949476     1.06000
C713        C  0.33136004  0.30367738  0.09388461     1.05600
C714        C  0.25744867  0.06250626  0.14123599     1.05200
C715        C  0.35146312  0.06254106  0.31024883     1.05600
C716        C  0.42357246  0.32698839  0.26016377     1.05100
H717        H  0.33445836  0.11357619  0.20885912     0.31800
O718        O  0.31488151  0.14397054  0.22043499    -1.30700
H719        H  0.34149532  0.29167602  0.32476282     0.31800
O720        O  0.31962409  0.27009727  0.30259057    -1.32100
C721        C  0.54938353  0.95499062  0.88669649     0.14900
C722        C  0.57232147  0.97988153  0.93000631    -0.34200
C723        C  0.53944036  0.01016631  0.96175416     0.19300
C724        C  0.48533634  0.00822957  0.95669123     0.01500
C725        C  0.46161632  0.97601433  0.91942636    -0.23900
C726        C  0.49443192  0.95450248  0.88078234     0.10600
S727        S  0.58122924  0.96060048  0.82821436    -0.07600
C728        C  0.52404936  0.98987761  0.80802817    -0.11000
C729        C  0.48161431  0.96318928  0.82914222    -0.27600
S730        S  0.45232274  0.05276584  0.99373776    -0.04800
C731        C  0.51226546  0.07354410  0.01722222    -0.18300
C732        C  0.55531849  0.04759324  0.99674899    -0.16300
H733        H  0.61456843  0.98494670  0.93215073     0.19100
H734        H  0.41956066  0.97875787  0.91323558     0.15100
H735        H  0.44176994  0.97389569  0.81838102     0.17600
H736        H  0.59587124  0.05560096  0.00685813     0.11000
C737        C  0.97484548  0.02162319  0.53359420     0.14900
C738        C  0.00645714  0.05991495  0.55659388    -0.34200
C739        C  0.02830470  0.09784312  0.52307092     0.19300
C740        C  0.02816762  0.09074840  0.46822039     0.01500
C741        C  0.00308522  0.04706053  0.44607693    -0.23900
C742        C  0.97286140  0.01572054  0.47958937     0.10600
S743        S  0.93186952  0.98323513  0.56745970    -0.07600
C744        C  0.91168441  0.95805101  0.50799765    -0.11000
C745        C  0.93642600  0.97929263  0.46447432    -0.27600
S746        S  0.02314545  0.14867513  0.43529843    -0.04800
C747        C  0.99290739  0.16961553  0.49180896    -0.18300
C748        C  0.01961643  0.14979842  0.53473666    -0.16300
H749        H  0.00363948  0.06686944  0.59854567     0.19100
H750        H  0.99826930  0.04398340  0.40386900     0.15100
H751        H  0.92889275  0.96808794  0.42412115     0.17600
H752        H  0.00866888  0.16147732  0.57430723     0.11000
C753        C  0.54943105  0.92743161  0.05120836     0.14900
C754        C  0.57380884  0.95971045  0.08801916    -0.34200
C755        C  0.54165070  0.98180634  0.12689730     0.19300
C756        C  0.48659470  0.98170717  0.12159374     0.01500
C757        C  0.46300082  0.95666641  0.07862379    -0.23900
C758        C  0.49529296  0.92596316  0.04656119     0.10600
S759        S  0.58180835  0.88316564  0.01330326    -0.07600
C760        C  0.52166709  0.86379991  0.98905967    -0.11000
C761        C  0.47888747  0.88935050  0.01077068    -0.27600
S762        S  0.45556414  0.97624216  0.18061220    -0.04800
C763        C  0.51260155  0.94587100  0.19951268    -0.18300
C764        C  0.55489685  0.97281734  0.17843697    -0.16300
H765        H  0.61592418  0.95673815  0.09368951     0.19100
H766        H  0.42068739  0.95207098  0.07685092     0.15100
H767        H  0.43825610  0.88231545  0.00028431     0.17600
H768        H  0.59478605  0.96185373  0.18878810     0.11000
C769        C  0.97054926  0.42664689  0.95936437     0.14900
C770        C  0.93210671  0.40178999  0.98952564    -0.34200
C771        C  0.89234085  0.43374549  0.01028360     0.19300
C772        C  0.89822090  0.48868107  0.01226559     0.01500
C773        C  0.94170474  0.51266167  0.98841330    -0.23900
C774        C  0.97466432  0.48087307  0.95825201     0.10600
S775        S  0.01055520  0.39503982  0.91629167    -0.07600
C776        C  0.03368262  0.45579974  0.89708246    -0.11000
C777        C  0.01098714  0.49802356  0.92250990    -0.27600
S778        S  0.83980593  0.52056265  0.00748984    -0.04800
C779        C  0.82102046  0.46542261  0.97381428    -0.18300
C780        C  0.84112788  0.42141138  0.99860453    -0.16300
H781        H  0.92633577  0.35975674  0.98553678     0.19100
H782        H  0.94361741  0.55503762  0.98443158     0.15100
H783        H  0.02074838  0.53889114  0.91558071     0.17600
H784        H  0.83086703  0.38225770  0.98513180     0.11000
C785        C  0.05237861  0.92478727  0.52997046     0.14900
C786        C  0.02126208  0.88673227  0.55404192    -0.34200
C787        C  0.00295624  0.84590676  0.52214586     0.19300
C788        C  0.00492879  0.84998891  0.46703663     0.02300
C789        C  0.02795572  0.89407043  0.44317805    -0.23900
C790        C  0.05589622  0.92825148  0.47579600     0.10600
S791        S  0.09431395  0.96456206  0.56314527    -0.07600
C792        C  0.11617985  0.98731134  0.50325181    -0.11000
C793        C  0.09259266  0.96434470  0.46000447    -0.27600
S794        S  0.01482970  0.79075676  0.43780729    -0.04800
C795        C  0.04289429  0.77408194  0.49681863    -0.18300
C796        C  0.01389094  0.79537918  0.53744200    -0.16300
H797        H  0.02291788  0.88210018  0.59637806     0.19100
H798        H  0.03424264  0.89510903  0.40103471     0.15100
H799        H  0.10180675  0.97341956  0.41941339     0.17600
H800        H  0.02382165  0.78677028  0.57802408     0.11000
C801        C  0.06365471  0.51322216  0.04042382     0.14900
C802        C  0.10253835  0.53749616  0.01037184    -0.34200
C803        C  0.14232650  0.50505696  0.99041675     0.19300
C804        C  0.13617196  0.45013286  0.98910656     0.01500
C805        C  0.09208291  0.42671652  0.01234537    -0.23900
C806        C  0.05905471  0.45904319  0.04184193     0.10600
S807        S  0.02375938  0.54548665  0.08317484    -0.07600
C808        C  0.99992810  0.48507002  0.10248681    -0.11000
C809        C  0.02236110  0.44248516  0.07741687    -0.27600
S810        S  0.19427575  0.41795432  0.99541056    -0.04800
C811        C  0.21315310  0.47370521  0.02806229    -0.18300
C812        C  0.19346728  0.51735401  0.00236420    -0.16300
H813        H  0.10857218  0.57952309  0.01401790     0.19100
H814        H  0.08976853  0.38439278  0.01668881     0.15100
H815        H  0.01224393  0.40173918  0.08457024     0.17600
H816        H  0.20378692  0.55668122  0.01527175     0.11000
C817        C  0.97666937  0.51201754  0.54918736     0.14900
C818        C  0.95210593  0.48098943  0.58714057    -0.34200
C819        C  0.98435786  0.45913500  0.62605263     0.19300
C820        C  0.03929484  0.45782292  0.61985605     0.01500
C821        C  0.06288698  0.48210289  0.57641230    -0.23900
C822        C  0.03083323  0.51282790  0.54430405     0.10600
S823        S  0.94484948  0.55622906  0.51062926    -0.07600
C824        C  0.00538239  0.57515714  0.48668521    -0.11000
C825        C  0.04771457  0.54903088  0.50834002    -0.27600
S826        S  0.07141019  0.46248073  0.67818060    -0.04800
C827        C  0.01564404  0.49455197  0.69797693    -0.18300
C828        C  0.97210665  0.46908854  0.67768355    -0.16300
H829        H  0.91012630  0.48487708  0.59340711     0.19100
H830        H  0.10524832  0.48607397  0.57412084     0.15100
H831        H  0.08850103  0.55577115  0.49806444     0.17600
H832        H  0.93273150  0.48144113  0.68856079     0.11000
C833        C  0.99277900  0.48500222  0.38254591     0.14900
C834        C  0.96991585  0.46091911  0.42646454    -0.34200
C835        C  0.00267301  0.43080169  0.45843917     0.19300
C836        C  0.05677664  0.43221501  0.45304993     0.01500
C837        C  0.08056690  0.46334767  0.41470079    -0.23900
C838        C  0.04766769  0.48443191  0.37590193     0.10600
S839        S  0.96020707  0.47925907  0.32457978    -0.07600
C840        C  0.01639388  0.44814366  0.30437494    -0.11000
C841        C  0.05968035  0.47433558  0.32426288    -0.27600
S842        S  0.08950503  0.38845514  0.49144151    -0.04800
C843        C  0.02942151  0.36884347  0.51588700    -0.18300
C844        C  0.98658942  0.39450232  0.49461224    -0.16300
H845        H  0.92762830  0.45643324  0.42920133     0.19100
H846        H  0.12253959  0.46000034  0.40809092     0.15100
H847        H  0.09916468  0.46253944  0.31317308     0.17600
H848        H  0.94596056  0.38722746  0.50515945     0.11000
C849        C  0.56349961  0.98914970  0.53906812     0.14900
C850        C  0.60053252  0.01145952  0.50553048    -0.34200
C851        C  0.63964511  0.97821070  0.48587310     0.19300
C852        C  0.63493459  0.92331231  0.49042748     0.01500
C853        C  0.59133516  0.90101385  0.51586712    -0.23900
C854        C  0.55884040  0.93518276  0.54403156     0.10600
S855        S  0.52556731  0.02446255  0.58101928    -0.07600
C856        C  0.50179710  0.96579737  0.60474599    -0.11000
C857        C  0.52320508  0.92131442  0.58188809    -0.27600
S858        S  0.69420941  0.89384664  0.49935125    -0.04800
C859        C  0.71292203  0.95409743  0.52340226    -0.18300
C860        C  0.69093891  0.99320602  0.49295807    -0.16300
H861        H  0.60592406  0.05373256  0.50550160     0.19100
H862        H  0.58976330  0.85912404  0.52351925     0.15100
H863        H  0.51303553  0.88123057  0.59207998     0.17600
H864        H  0.70066326  0.03414290  0.50001560     0.11000
C865        C  0.47018429  0.01346692  0.45928654     0.14900
C866        C  0.43185730  0.03801252  0.48975047    -0.34200
C867        C  0.39275681  0.00570687  0.51141149     0.19300
C868        C  0.39913703  0.95081422  0.51346202     0.01500
C869        C  0.44265765  0.92726584  0.48939195    -0.23900
C870        C  0.47483454  0.95930794  0.45852404     0.10600
S871        S  0.50938776  0.04534160  0.41554365    -0.07600
C872        C  0.53261948  0.98476747  0.39622183    -0.11000
C873        C  0.51067762  0.94241531  0.42226107    -0.27600
S874        S  0.34098014  0.91832038  0.50877275    -0.04800
C875        C  0.32155244  0.97341792  0.47540983    -0.18300
C876        C  0.34129603  0.01748419  0.50038649    -0.16300
H877        H  0.42564552  0.07996291  0.48560164     0.19100
H878        H  0.44500722  0.88489405  0.48570777     0.15100
H879        H  0.52059465  0.90161186  0.41534030     0.17600
H880        H  0.33050924  0.05659675  0.48719456     0.11000
C881        C  0.55710840  0.51813900  0.02746512     0.14900
C882        C  0.52497814  0.55496956  0.05200397    -0.34200
C883        C  0.50360818  0.59442682  0.02020638     0.19300
C884        C  0.50481498  0.59007970  0.96508319     0.01500
C885        C  0.52911977  0.54687942  0.94108188    -0.23900
C886        C  0.55923050  0.51421865  0.97326485     0.10600
S887        S  0.60076469  0.47966388  0.05985453    -0.07600
C888        C  0.62117126  0.45655632  0.99960702    -0.11000
C889        C  0.59614621  0.47876642  0.95680306    -0.27600
S890        S  0.51224156  0.64947585  0.93530926    -0.04800
C891        C  0.54047523  0.66746683  0.99377896    -0.18300
C892        C  0.51220731  0.64562797  0.03477997    -0.16300
H893        H  0.52738369  0.55997650  0.09425413     0.19100
H894        H  0.53429898  0.54566743  0.89880052     0.15100
H895        H  0.60397943  0.46906842  0.91609071     0.17600
H896        H  0.52192049  0.65513000  0.07520892     0.11000
C897        C  0.53150350  0.35217838  0.97854925     0.14900
C898        C  0.50650394  0.39512872  0.95493283    -0.34200
C899        C  0.47614570  0.42744486  0.98727017     0.19300
C900        C  0.47794762  0.42319497  0.04145542     0.01500
C901        C  0.50903441  0.38533962  0.06580551    -0.23900
C902        C  0.53066946  0.34635100  0.03351925     0.10600
S903        S  0.52764867  0.29351407  0.94692628    -0.07600
C904        C  0.49597997  0.27365568  0.00304156    -0.11000
C905        C  0.52127459  0.29473863  0.04627808    -0.27600
S906        S  0.43478552  0.46238212  0.07387966    -0.04800
C907        C  0.41445607  0.48540322  0.01356051    -0.18300
C908        C  0.43953399  0.46312358  0.97082216    -0.16300
H909        H  0.50200942  0.39699597  0.91261606     0.19100
H910        H  0.50572858  0.37945917  0.10790025     0.15100
H911        H  0.50919393  0.28407240  0.08582920     0.17600
H912        H  0.43183927  0.47281401  0.93009664     0.11000
loop_ 
_geom_bond_atom_site_label_1 
_geom_bond_atom_site_label_2 
_geom_bond_distance 
_geom_bond_site_symmetry_2 
_ccdc_geom_bond_type 
C1            N2   1.348   1_556  A
C1            N6   1.368       .  A
C1          C312   1.469       .  S
N2            C3   1.347       .  A
C3            N4   1.371       .  A
C3          C168   1.473       .  S
N4            C5   1.370       .  A
C5            N6   1.368   1_554  A
C5           C51   1.506   1_455  S
C7            N8   1.365   1_554  A
C7           N12   1.356       .  A
C7          C907   1.462       .  S
N8            C9   1.360       .  A
C9           N10   1.359   1_556  A
C9          C347   1.475       .  S
N10          C11   1.356       .  A
C11          N12   1.348       .  A
C11         C204   1.465       .  S
C13          N14   1.367       .  A
C13          N18   1.348   1_554  A
C13         C546   1.467       .  S
N14          C15   1.367   1_554  A
C15          N16   1.371       .  A
C15          C65   1.506   1_655  S
N16          C17   1.372       .  A
C17          N18   1.347       .  A
C17         C624   1.474       .  S
C19          N20   1.365       .  A
C19          N24   1.357   1_556  A
C19         C888   1.462       .  S
N20          C21   1.360       .  A
C21          N22   1.359       .  A
C21         C659   1.475       .  S
N22          C23   1.357   1_556  A
C23          N24   1.348       .  A
C23         C582   1.466       .  S
C25          N26   1.344       .  A
C25          N30   1.372       .  A
C25         C390   1.474       .  S
N26          C27   1.346   1_565  A
C27          N28   1.367       .  A
C27         C581   1.460       .  S
N28          C29   1.365   1_545  A
C29          N30   1.373       .  A
C29          C75   1.506   1_554  S
C31          N32   1.365       .  A
C31          N36   1.357   1_565  A
C31         C872   1.461       .  S
N32          C33   1.358       .  A
C33          N34   1.360       .  A
C33         C425   1.473       .  S
N34          C35   1.355   1_565  A
C35          N36   1.349       .  A
C35         C584   1.467       .  S
C37          N38   1.345   1_545  A
C37          N42   1.371       .  A
C37         C234   1.471       .  S
N38          C39   1.346       .  A
C39          N40   1.368       .  A
C39         C348   1.463       .  S
N40          C41   1.366       .  A
C41          N42   1.370   1_565  A
C41          C87   1.505   1_556  S
C43          N44   1.359   1_565  A
C43          N48   1.363       .  A
C43         C856   1.460       .  S
N44          C45   1.350       .  A
C45          N46   1.358   1_545  A
C45         C270   1.467       .  S
N46          C47   1.358       .  A
C47          N48   1.356       .  A
C47         C349   1.472       .  S
C49          N50   1.370       .  A
C49          N54   1.346       .  A
C49         C392   1.469       .  S
N50          C51   1.368       .  A
C51          N52   1.369   1_554  A
N52          C53   1.369       .  A
C53          N54   1.347   1_556  A
C53         C480   1.470       .  S
C55          N56   1.361   1_556  A
C55          N60   1.358       .  A
C55         C891   1.504       .  S
N56          C57   1.360       .  A
C57          N58   1.367       .  A
C57         C391   1.470       .  S
N58          C59   1.368   1_554  A
C59          N60   1.356       .  A
C59         C516   1.465       .  S
C61          N62   1.346       .  A
C61          N66   1.370       .  A
C61         C237   1.469       .  S
N62          C63   1.347   1_556  A
C63          N64   1.369       .  A
C63         C678   1.470       .  S
N64          C65   1.369   1_554  A
C65          N66   1.368       .  A
C67          N68   1.361       .  A
C67          N72   1.358   1_554  A
C67         C904   1.504       .  S
N68          C69   1.358       .  A
C69          N70   1.368       .  A
C69         C713   1.465       .  S
N70          C71   1.366   1_554  A
C71          N72   1.358       .  A
C71         C235   1.468       .  S
C73          N74   1.365       .  A
C73          N78   1.350       .  A
C73         C515   1.464       .  S
N74          C75   1.364       .  A
C75          N76   1.373   1_565  A
N76          C77   1.374       .  A
C77          N78   1.347   1_545  A
C77         C660   1.481       .  S
C79          N80   1.355       .  A
C79          N84   1.363   1_565  A
C79         C859   1.504       .  S
N80          C81   1.353       .  A
C81          N82   1.367       .  A
C81         C518   1.462       .  S
N82          C83   1.368   1_565  A
C83          N84   1.363       .  A
C83         C661   1.471       .  S
C85          N86   1.366       .  A
C85          N90   1.350   1_545  A
C85         C714   1.467       .  S
N86          C87   1.366   1_545  A
C87          N88   1.372       .  A
N88          C89   1.372       .  A
C89          N90   1.347       .  A
C89         C203   1.478       .  S
C91          N92   1.358   1_565  A
C91          N96   1.358       .  A
C91         C875   1.503       .  S
N92          C93   1.357       .  A
C93          N94   1.367   1_545  A
C93         C715   1.465       .  S
N94          C95   1.368       .  A
C95          N96   1.358       .  A
C95         C206   1.463       .  S
C97          N98   1.376       .  A
C97         N102   1.345   1_655  A
C97         C626   1.482       .  S
N98          C99   1.374   1_645  A
C99         N100   1.364   1_565  A
C99         C111   1.507       .  S
N100        C101   1.364       .  A
C101        N102   1.349       .  A
C101        C269   1.461       .  S
C103        N104   1.363   1_455  A
C103        N108   1.359       .  A
C103        C843   1.462       .  S
N104        C105   1.356       .  A
C105        N106   1.361   1_655  A
C105        C625   1.474       .  S
N106        C107   1.358       .  A
C107        N108   1.351       .  A
C107        C272   1.472       .  S
C109        N110   1.371       .  A
C109        N114   1.347       .  A
C109        C314   1.476       .  S
N110        C111   1.372       .  A
C111        N112   1.367   1_455  A
N112        C113   1.369       .  A
C113        N114   1.347   1_655  A
C113        C483   1.467       .  S
C115        N116   1.359   1_455  A
C115        N120   1.357       .  A
C115        C827   1.503       .  S
N116        C117   1.358       .  A
C117        N118   1.367   1_655  A
C117        C481   1.464       .  S
N118        C119   1.368       .  A
C119        N120   1.356       .  A
C119        C313   1.461       .  S
C121        N122   1.347       .  A
C121        N126   1.375       .  A
C121        C171   1.483       .  S
N122        C123   1.350   1_455  A
C123        N124   1.364       .  A
C123        C426   1.463       .  S
N124        C125   1.364   1_655  A
C125        N126   1.374       .  A
C125        C135   1.506   1_565  S
C127        N128   1.357   1_455  A
C127        N132   1.365       .  A
C127        C824   1.462       .  S
N128        C129   1.349       .  A
C129        N130   1.357   1_655  A
C129        C427   1.469       .  S
N130        C131   1.361       .  A
C131        N132   1.358       .  A
C131        C169   1.475       .  S
C133        N134   1.371       .  A
C133        N138   1.346   1_655  A
C133        C549   1.473       .  S
N134        C135   1.372   1_655  A
C135        N136   1.365       .  A
N136        C137   1.368       .  A
C137        N138   1.346       .  A
C137        C680   1.463       .  S
C139        N140   1.358   1_455  A
C139        N144   1.361       .  A
C139        C840   1.503       .  S
N140        C141   1.358       .  A
C141        N142   1.367   1_655  A
C141        C547   1.465       .  S
N142        C143   1.367       .  A
C143        N144   1.359       .  A
C143        C679   1.467       .  S
C145        N146   1.349       .  A
C145        N150   1.366       .  A
C145        C201   1.465       .  S
N146        C147   1.347       .  A
C147        N148   1.373       .  A
C147        C712   1.479       .  S
N148        C149   1.372       .  A
C149        N150   1.365       .  A
C149        C293   1.505       .  S
C151        N152   1.356       .  A
C151        N156   1.360       .  A
C151        C811   1.502       .  S
N152        C153   1.356       .  A
C153        N154   1.367       .  A
C153        C681   1.462       .  S
N154        C155   1.367       .  A
C155        N156   1.359       .  A
C155        C170   1.465       .  S
O157       Zr193   2.496       .  S
O157        C168   1.305       .  A
O158       Zr192   2.488       .  S
O158        C169   1.301       .  A
O159       Zr165   2.517       .  S
O159        C170   1.306       .  A
O160       Zr165   2.517       .  S
O160        C171   1.309       .  A
O161       Zr195   2.392       .  S
O161        C171   1.281       .  A
O162       Zr194   2.367       .  S
O162        C170   1.277       .  A
O163       Zr165   2.406       .  S
O163        C169   1.287       .  A
O164       Zr165   2.400       .  S
O164        C168   1.284       .  A
Zr165       O166   2.338       .  S
Zr165       O167   2.345       .  S
Zr165       O175   2.338       .  S
Zr165       O173   2.354       .  S
O166       Zr192   2.353       .  S
O166       Zr195   2.341       .  S
O167       Zr193   2.340       .  S
O167       Zr194   2.335       .  S
H172        O173   0.966       .  S
O173       Zr192   2.343       .  S
O173       Zr194   2.338       .  S
H174        O175   0.965       .  S
O175       Zr193   2.341       .  S
O175       Zr195   2.323       .  S
O176       Zr192   2.482       .  S
O176        C199   1.301       .  A
O177       Zr193   2.516       .  S
O177        C200   1.306       .  A
O178       Zr194   2.460       .  S
O178        C201   1.296       .  A
O179       Zr195   2.514       .  S
O179        C202   1.305       .  A
O180       Zr195   2.507       .  S
O180        C203   1.307       .  A
O181       Zr194   2.469       .  S
O181        C204   1.297       .  A
O182       Zr196   2.481       .  S
O182        C205   1.301       .  A
O183       Zr196   2.521       .  S
O183        C206   1.307       .  A
O184       Zr194   2.386       .  S
O184        C205   1.280       .  A
O185       Zr195   2.362       .  S
O185        C206   1.277       .  A
O186       Zr192   2.405       .  S
O186        C201   1.284       .  A
O187       Zr193   2.401       .  S
O187        C204   1.285       .  A
O188       Zr193   2.395       .  S
O188        C203   1.282       .  A
O189       Zr192   2.364       .  S
O189        C202   1.276       .  A
O190       Zr196   2.395       .  S
O190        C199   1.282       .  A
O191       Zr196   2.359       .  S
O191        C200   1.277       .  A
Zr192       O198   2.319       .  S
Zr192       O210   2.342       .  S
Zr193       O197   2.344       .  S
Zr193       O208   2.346       .  S
Zr194       O198   2.323       .  S
Zr194       O208   2.344       .  S
Zr195       O197   2.339       .  S
Zr195       O210   2.351       .  S
Zr196       O197   2.346       .  S
Zr196       O198   2.330       .  S
Zr196       O210   2.332       .  S
Zr196       O208   2.351       .  S
C199        C277   1.469       .  S
C200        C375   1.460       .  S
C202        C285   1.458       .  S
C205        C369   1.464       .  S
H207        O208   0.966       .  S
H209        O210   0.965       .  S
C211        N212   1.371       .  A
C211        N216   1.345       .  A
C211        C709   1.472       .  S
N212        C213   1.369       .  A
C213        N214   1.368       .  A
C213        C603   1.506       .  S
N214        C215   1.368       .  A
C215        N216   1.348       .  A
C215        C271   1.466       .  S
C217        N218   1.364       .  A
C217        N222   1.359       .  A
C217        C792   1.463   1_545  S
N218        C219   1.359       .  A
C219        N220   1.359       .  A
C219        C711   1.474       .  S
N220        C221   1.357       .  A
C221        N222   1.350       .  A
C221        C266   1.470       .  S
O223       Zr259   2.495       .  S
O223        C234   1.305       .  A
O224       Zr258   2.529       .  S
O224        C235   1.308       .  A
O225       Zr231   2.533       .  S
O225        C236   1.309       .  A
O226       Zr231   2.493       .  S
O226        C237   1.304       .  A
O227       Zr261   2.390       .  S
O227        C237   1.282       .  A
O228       Zr260   2.359       .  S
O228        C236   1.275       .  A
O229       Zr231   2.363       .  S
O229        C235   1.277       .  A
O230       Zr231   2.388       .  S
O230        C234   1.281       .  A
Zr231       O232   2.353       .  S
Zr231       O233   2.329       .  S
Zr231       O241   2.331       .  S
Zr231       O239   2.344       .  S
O232       Zr258   2.338       .  S
O232       Zr261   2.351       .  S
O233       Zr259   2.333       .  S
O233       Zr260   2.347       .  S
C236        C599   1.469       .  S
H238        O239   0.966       .  S
O239       Zr258   2.343       .  S
O239       Zr260   2.340       .  S
H240        O241   0.965       .  S
O241       Zr259   2.322       .  S
O241       Zr261   2.338       .  S
O242       Zr258   2.477       .  S
O242        C265   1.302       .  A
O243       Zr259   2.476       .  S
O243        C266   1.300       .  A
O244       Zr260   2.480       .  S
O244        C267   1.301       .  A
O245       Zr261   2.468       .  S
O245        C268   1.297       .  A
O246       Zr261   2.450       .  S
O246        C269   1.295       .  A
O247       Zr260   2.484       .  S
O247        C270   1.301       .  A
O248       Zr262   2.463       .  S
O248        C271   1.298       .  A
O249       Zr262   2.470       .  S
O249        C272   1.297       .  A
O250       Zr260   2.403       .  S
O250        C271   1.283       .  A
O251       Zr261   2.413       .  S
O251        C272   1.287       .  A
O252       Zr258   2.394       .  S
O252        C267   1.282       .  A
O253       Zr259   2.389       .  S
O253        C270   1.284       .  A
O254       Zr259   2.411       .  S
O254        C269   1.286       .  A
O255       Zr258   2.408       .  S
O255        C268   1.286       .  A
O256       Zr262   2.393       .  S
O256        C265   1.283       .  A
O257       Zr262   2.408       .  S
O257        C266   1.286       .  A
Zr258       O264   2.347       .  S
Zr258       O276   2.355       .  S
Zr259       O263   2.345       .  S
Zr259       O274   2.356       .  S
Zr260       O264   2.315       .  S
Zr260       O274   2.336       .  S
Zr261       O263   2.335       .  S
Zr261       O276   2.329       .  S
Zr262       O263   2.338       .  S
Zr262       O264   2.334       .  S
Zr262       O276   2.347       .  S
Zr262       O274   2.335       .  S
C265        C291   1.463       .  S
C267        C589   1.468       .  S
C268        C297   1.466       .  S
H273        O274   0.966       .  S
H275        O276   0.966       .  S
C277        N278   1.347       .  A
C277        N282   1.368       .  A
N278        C279   1.347       .  A
C279        N280   1.370       .  A
C279        C343   1.469       .  S
N280        C281   1.369       .  A
C281        N282   1.368       .  A
C281        C437   1.503       .  S
C283        N284   1.355       .  A
C283        N288   1.361       .  A
C283        C795   1.501       .  S
N284        C285   1.353       .  A
C285        N286   1.367       .  A
N286        C287   1.366       .  A
C287        N288   1.362       .  A
C287        C345   1.469       .  S
C289        N290   1.345       .  A
C289        N294   1.371       .  A
C289        C346   1.473       .  S
N290        C291   1.347       .  A
C291        N292   1.368       .  A
N292        C293   1.366       .  A
C293        N294   1.371       .  A
C295        N296   1.356       .  A
C295        N300   1.366       .  A
C295        C776   1.460       .  S
N296        C297   1.348       .  A
C297        N298   1.356       .  A
N298        C299   1.361       .  A
C299        N300   1.359       .  A
C299        C315   1.477       .  S
O301       Zr337   2.471       .  S
O301        C312   1.299       .  A
O302       Zr336   2.516       .  S
O302        C313   1.306       .  A
O303       Zr309   2.488       .  S
O303        C314   1.303       .  A
O304       Zr309   2.494       .  S
O304        C315   1.302       .  A
O305       Zr339   2.400       .  S
O305        C315   1.286       .  A
O306       Zr338   2.404       .  S
O306        C314   1.284       .  A
O307       Zr309   2.364       .  S
O307        C313   1.276       .  A
O308       Zr309   2.402       .  S
O308        C312   1.283       .  A
Zr309       O310   2.352       .  S
Zr309       O311   2.319       .  S
Zr309       O319   2.342       .  S
Zr309       O317   2.339       .  S
O310       Zr336   2.334       .  S
O310       Zr339   2.337       .  S
O311       Zr337   2.339       .  S
O311       Zr338   2.348       .  S
H316        O317   0.965       .  S
O317       Zr336   2.343       .  S
O317       Zr338   2.338       .  S
H318        O319   0.966       .  S
O319       Zr337   2.336       .  S
O319       Zr339   2.356       .  S
O320       Zr336   2.484       .  S
O320        C343   1.302       .  A
O321       Zr337   2.477       .  S
O321        C344   1.298       .  A
O322       Zr338   2.529       .  S
O322        C345   1.308       .  A
O323       Zr339   2.494       .  S
O323        C346   1.305       .  A
O324       Zr339   2.477       .  S
O324        C347   1.299       .  A
O325       Zr338   2.476       .  S
O325        C348   1.302       .  A
O326       Zr340   2.472       .  S
O326        C349   1.297       .  A
O327       Zr340   2.454       .  S
O327        C350   1.297       .  A
O328       Zr338   2.415       .  S
O328        C349   1.288       .  A
O329       Zr339   2.415       .  S
O329        C350   1.286       .  A
O330       Zr336   2.365       .  S
O330        C345   1.278       .  A
O331       Zr337   2.394       .  S
O331        C348   1.283       .  A
O332       Zr337   2.417       .  S
O332        C347   1.289       .  A
O333       Zr336   2.393       .  S
O333        C346   1.281       .  A
O334       Zr340   2.399       .  S
O334        C343   1.283       .  A
O335       Zr340   2.417       .  S
O335        C344   1.288       .  A
Zr336       O342   2.350       .  S
Zr336       O354   2.330       .  S
Zr337       O341   2.339       .  S
Zr337       O352   2.352       .  S
Zr338       O342   2.339       .  S
Zr338       O352   2.355       .  S
Zr339       O341   2.349       .  S
Zr339       O354   2.327       .  S
Zr340       O341   2.340       .  S
Zr340       O342   2.351       .  S
Zr340       O354   2.340       .  S
Zr340       O352   2.331       .  S
C344        C455   1.478       .  S
C350        C449   1.464       .  S
H351        O352   0.966       .  S
H353        O354   0.965       .  S
C355        N356   1.373       .  A
C355        N360   1.346       .  A
C355        C579   1.476       .  S
N356        C357   1.373       .  A
C357        N358   1.365       .  A
C357        C461   1.506       .  S
N358        C359   1.367       .  A
C359        N360   1.347       .  A
C359        C421   1.463       .  S
C361        N362   1.357       .  A
C361        N366   1.364       .  A
C361        C808   1.460       .  S
N362        C363   1.349       .  A
C363        N364   1.356       .  A
C363        C423   1.468       .  S
N364        C365   1.361       .  A
C365        N366   1.357       .  A
C365        C548   1.474       .  S
C367        N368   1.346       .  A
C367        N372   1.370       .  A
C367        C424   1.472       .  S
N368        C369   1.346       .  A
C369        N370   1.368       .  A
N370        C371   1.366       .  A
C371        N372   1.371       .  A
C371        C527   1.504       .  S
C373        N374   1.356       .  A
C373        N378   1.361       .  A
C373        C763   1.504       .  S
N374        C375   1.356       .  A
C375        N376   1.366       .  A
N376        C377   1.367       .  A
C377        N378   1.359       .  A
C377        C393   1.464       .  S
O379       Zr415   2.499       .  S
O379        C390   1.306       .  A
O380       Zr414   2.530       .  S
O380        C391   1.308       .  A
O381       Zr387   2.491       .  S
O381        C392   1.304       .  A
O382       Zr387   2.524       .  S
O382        C393   1.307       .  A
O383       Zr417   2.363       .  S
O383        C393   1.276       .  A
O384       Zr416   2.389       .  S
O384        C392   1.281       .  A
O385       Zr387   2.359       .  S
O385        C391   1.276       .  A
O386       Zr387   2.387       .  S
O386        C390   1.280       .  A
Zr387       O388   2.344       .  S
Zr387       O389   2.329       .  S
Zr387       O397   2.334       .  S
Zr387       O395   2.352       .  S
O388       Zr414   2.338       .  S
O388       Zr417   2.342       .  S
O389       Zr415   2.327       .  S
O389       Zr416   2.339       .  S
H394        O395   0.966       .  S
O395       Zr414   2.340       .  S
O395       Zr416   2.353       .  S
H396        O397   0.965       .  S
O397       Zr415   2.334       .  S
O397       Zr417   2.357       .  S
O398       Zr414   2.476       .  S
O398        C421   1.301       .  A
O399       Zr415   2.479       .  S
O399        C422   1.299       .  A
O400       Zr416   2.469       .  S
O400        C423   1.298       .  A
O401       Zr417   2.488       .  S
O401        C424   1.303       .  A
O402       Zr417   2.490       .  S
O402        C425   1.301       .  A
O403       Zr416   2.451       .  S
O403        C426   1.295       .  A
O404       Zr418   2.467       .  S
O404        C427   1.297       .  A
O405       Zr418   2.465       .  S
O405        C428   1.298       .  A
O406       Zr416   2.413       .  S
O406        C427   1.286       .  A
O407       Zr417   2.407       .  S
O407        C428   1.284       .  A
O408       Zr414   2.406       .  S
O408        C423   1.286       .  A
O409       Zr415   2.413       .  S
O409        C426   1.286       .  A
O410       Zr415   2.403       .  S
O410        C425   1.287       .  A
O411       Zr414   2.400       .  S
O411        C424   1.283       .  A
O412       Zr418   2.399       .  S
O412        C421   1.284       .  A
O413       Zr418   2.415       .  S
O413        C422   1.288       .  A
Zr414       O420   2.353       .  S
Zr414       O432   2.349       .  S
Zr415       O419   2.356       .  S
Zr415       O430   2.345       .  S
Zr416       O420   2.328       .  S
Zr416       O430   2.337       .  S
Zr417       O419   2.342       .  S
Zr417       O432   2.316       .  S
Zr418       O419   2.334       .  S
Zr418       O420   2.348       .  S
Zr418       O432   2.335       .  S
Zr418       O430   2.335       .  S
C422        C441   1.476       .  S
C428        C435   1.467       .  S
H429        O430   0.966       .  S
H431        O432   0.965       .  S
C433        N434   1.346       .  A
C433        N438   1.370       .  A
C433        C511   1.471       .  S
N434        C435   1.348       .  A
C435        N436   1.368       .  A
N436        C437   1.368       .  A
C437        N438   1.369       .  A
C439        N440   1.365       .  A
C439        N444   1.357       .  A
C439        C744   1.461       .  S
N440        C441   1.359       .  A
C441        N442   1.359       .  A
N442        C443   1.356       .  A
C443        N444   1.349       .  A
C443        C514   1.465       .  S
C445        N446   1.374       .  A
C445        N450   1.346       .  A
C445        C517   1.478       .  S
N446        C447   1.372       .  A
C447        N448   1.366       .  A
C447        C593   1.506       .  S
N448        C449   1.365       .  A
C449        N450   1.349       .  A
C451        N452   1.356       .  A
C451        N456   1.366       .  A
C451        C760   1.463       .  S
N452        C453   1.347       .  A
C453        N454   1.356       .  A
C453        C512   1.465       .  S
N454        C455   1.360       .  A
C455        N456   1.361       .  A
C457        N458   1.348       .  A
C457        N462   1.366       .  A
C457        C658   1.462       .  S
N458        C459   1.346       .  A
C459        N460   1.374       .  A
C459        C513   1.478       .  S
N460        C461   1.373       .  A
C461        N462   1.364       .  A
C463        N464   1.357       .  A
C463        N468   1.359       .  A
C463        C779   1.503       .  S
N464        C465   1.357       .  A
C465        N466   1.367       .  A
C465        C482   1.460       .  S
N466        C467   1.366       .  A
C467        N468   1.358       .  A
C467        C627   1.464       .  S
O469       Zr505   2.482       .  S
O469        C480   1.302       .  A
O470       Zr504   2.525       .  S
O470        C481   1.308       .  A
O471       Zr477   2.518       .  S
O471        C482   1.306       .  A
O472       Zr477   2.486       .  S
O472        C483   1.303       .  A
O473       Zr507   2.390       .  S
O473        C483   1.281       .  A
O474       Zr506   2.356       .  S
O474        C482   1.276       .  A
O475       Zr477   2.360       .  S
O475        C481   1.277       .  A
O476       Zr477   2.399       .  S
O476        C480   1.283       .  A
Zr477       O478   2.350       .  S
Zr477       O479   2.335       .  S
Zr477       O487   2.330       .  S
Zr477       O485   2.348       .  S
O478       Zr504   2.344       .  S
O478       Zr507   2.345       .  S
O479       Zr505   2.338       .  S
O479       Zr506   2.349       .  S
H484        O485   0.966       .  S
O485       Zr504   2.347       .  S
O485       Zr506   2.340       .  S
H486        O487   0.965       .  S
O487       Zr505   2.316       .  S
O487       Zr507   2.324       .  S
O488       Zr504   2.499       .  S
O488        C511   1.306       .  A
O489       Zr505   2.475       .  S
O489        C512   1.300       .  A
O490       Zr506   2.509       .  S
O490        C513   1.307       .  A
O491       Zr507   2.470       .  S
O491        C514   1.298       .  A
O492       Zr507   2.456       .  S
O492        C515   1.296       .  A
O493       Zr506   2.525       .  S
O493        C516   1.307       .  A
O494       Zr508   2.513       .  S
O494        C517   1.308       .  A
O495       Zr508   2.511       .  S
O495        C518   1.305       .  A
O496       Zr506   2.381       .  S
O496        C517   1.279       .  A
O497       Zr507   2.376       .  S
O497        C518   1.277       .  A
O498       Zr504   2.389       .  S
O498        C513   1.281       .  A
O499       Zr505   2.366       .  S
O499        C516   1.276       .  A
O500       Zr505   2.407       .  S
O500        C515   1.284       .  A
O501       Zr504   2.405       .  S
O501        C514   1.286       .  A
O502       Zr508   2.388       .  S
O502        C511   1.282       .  A
O503       Zr508   2.406       .  S
O503        C512   1.287       .  A
Zr504       O510   2.343       .  S
Zr504       O522   2.345       .  S
Zr505       O509   2.341       .  S
Zr505       O520   2.354       .  S
Zr506       O510   2.323       .  S
Zr506       O520   2.336       .  S
Zr507       O509   2.335       .  S
Zr507       O522   2.339       .  S
Zr508       O509   2.349       .  S
Zr508       O510   2.336       .  S
Zr508       O522   2.349       .  S
Zr508       O520   2.332       .  S
H519        O520   0.965       .  S
H521        O522   0.965       .  S
C523        N524   1.346       .  A
C523        N528   1.374       .  A
C523        C716   1.480       .  S
N524        C525   1.350       .  A
C525        N526   1.364       .  A
C525        C583   1.462       .  S
N526        C527   1.364       .  A
C527        N528   1.373       .  A
C529        N530   1.355       .  A
C529        N534   1.364       .  A
C529        C731   1.459       .  S
N530        C531   1.347       .  A
C531        N532   1.357       .  A
C531        C710   1.463       .  S
N532        C533   1.360       .  A
C533        N534   1.359       .  A
C533        C578   1.474       .  S
O535       Zr571   2.469       .  S
O535        C546   1.299       .  A
O536       Zr570   2.521       .  S
O536        C547   1.307       .  A
O537       Zr543   2.498       .  S
O537        C548   1.303       .  A
O538       Zr543   2.490       .  S
O538        C549   1.304       .  A
O539       Zr573   2.399       .  S
O539        C549   1.283       .  A
O540       Zr572   2.397       .  S
O540        C548   1.286       .  A
O541       Zr543   2.367       .  S
O541        C547   1.277       .  A
O542       Zr543   2.404       .  S
O542        C546   1.283       .  A
Zr543       O544   2.342       .  S
Zr543       O545   2.341       .  S
Zr543       O553   2.321       .  S
Zr543       O551   2.354       .  S
O544       Zr570   2.343       .  S
O544       Zr573   2.343       .  S
O545       Zr571   2.336       .  S
O545       Zr572   2.354       .  S
H550        O551   0.965       .  S
O551       Zr570   2.332       .  S
O551       Zr572   2.333       .  S
H552        O553   0.965       .  S
O553       Zr571   2.336       .  S
O553       Zr573   2.346       .  S
O554       Zr570   2.480       .  S
O554        C577   1.302       .  A
O555       Zr571   2.479       .  S
O555        C578   1.298       .  A
O556       Zr572   2.498       .  S
O556        C579   1.305       .  A
O557       Zr573   2.515       .  S
O557        C580   1.306       .  A
O558       Zr573   2.473       .  S
O558        C581   1.301       .  A
O559       Zr572   2.473       .  S
O559        C582   1.299       .  A
O560       Zr574   2.446       .  S
O560        C583   1.295       .  A
O561       Zr574   2.464       .  S
O561        C584   1.297       .  A
O562       Zr572   2.415       .  S
O562        C583   1.287       .  A
O563       Zr573   2.410       .  S
O563        C584   1.287       .  A
O564       Zr570   2.393       .  S
O564        C579   1.281       .  A
O565       Zr571   2.400       .  S
O565        C582   1.285       .  A
O566       Zr571   2.394       .  S
O566        C581   1.283       .  A
O567       Zr570   2.360       .  S
O567        C580   1.276       .  A
O568       Zr574   2.398       .  S
O568        C577   1.283       .  A
O569       Zr574   2.410       .  S
O569        C578   1.287       .  A
Zr570       O576   2.327       .  S
Zr570       O588   2.352       .  S
Zr571       O575   2.346       .  S
Zr571       O586   2.343       .  S
Zr572       O576   2.324       .  S
Zr572       O586   2.346       .  S
Zr573       O575   2.348       .  S
Zr573       O588   2.338       .  S
Zr574       O575   2.330       .  S
Zr574       O576   2.336       .  S
Zr574       O588   2.347       .  S
Zr574       O586   2.339       .  S
C577        C605   1.469       .  S
C580        C609   1.461       .  S
H585        O586   0.966       .  S
H587        O588   0.966       .  S
C589        N590   1.346       .  A
C589        N594   1.369       .  A
N590        C591   1.345       .  A
C591        N592   1.370       .  A
C591        C662   1.467       .  S
N592        C593   1.367       .  A
C593        N594   1.370       .  A
C595        N596   1.357       .  A
C595        N600   1.362       .  A
C595        C728   1.503   1_545  S
N596        C597   1.357       .  A
C597        N598   1.366       .  A
C597        C656   1.465       .  S
N598        C599   1.368       .  A
C599        N600   1.360       .  A
C601        N602   1.369       .  A
C601        N606   1.346       .  A
C601        C655   1.471       .  S
N602        C603   1.368       .  A
C603        N604   1.369       .  A
N604        C605   1.370       .  A
C605        N606   1.348       .  A
C607        N608   1.356       .  A
C607        N612   1.361       .  A
C607        C747   1.504       .  S
N608        C609   1.356       .  A
C609        N610   1.367       .  A
N610        C611   1.368       .  A
C611        N612   1.359       .  A
C611        C657   1.466       .  S
O613       Zr649   2.500       .  S
O613        C624   1.306       .  A
O614       Zr648   2.490       .  S
O614        C625   1.302       .  A
O615       Zr621   2.522       .  S
O615        C626   1.310       .  A
O616       Zr621   2.512       .  S
O616        C627   1.305       .  A
O617       Zr651   2.375       .  S
O617        C627   1.278       .  A
O618       Zr650   2.380       .  S
O618        C626   1.279       .  A
O619       Zr621   2.408       .  S
O619        C625   1.288       .  A
O620       Zr621   2.392       .  S
O620        C624   1.282       .  A
Zr621       O622   2.354       .  S
Zr621       O623   2.334       .  S
Zr621       O631   2.352       .  S
Zr621       O629   2.335       .  S
O622       Zr648   2.344       .  S
O622       Zr651   2.337       .  S
O623       Zr649   2.344       .  S
O623       Zr650   2.326       .  S
H628        O629   0.965       .  S
O629       Zr648   2.358       .  S
O629       Zr650   2.337       .  S
H630        O631   0.965       .  S
O631       Zr649   2.340       .  S
O631       Zr651   2.338       .  S
O632       Zr648   2.495       .  S
O632        C655   1.304       .  A
O633       Zr649   2.518       .  S
O633        C656   1.306       .  A
O634       Zr650   2.531       .  S
O634        C657   1.308       .  A
O635       Zr651   2.461       .  S
O635        C658   1.297       .  A
O636       Zr651   2.473       .  S
O636        C659   1.297       .  A
O637       Zr650   2.514       .  S
O637        C660   1.308       .  A
O638       Zr652   2.536       .  S
O638        C661   1.310       .  A
O639       Zr652   2.499       .  S
O639        C662   1.305       .  A
O640       Zr650   2.356       .  S
O640        C661   1.276       .  A
O641       Zr651   2.379       .  S
O641        C662   1.279       .  A
O642       Zr648   2.358       .  S
O642        C657   1.275       .  A
O643       Zr649   2.391       .  S
O643        C660   1.282       .  A
O644       Zr649   2.422       .  S
O644        C659   1.290       .  A
O645       Zr648   2.399       .  S
O645        C658   1.282       .  A
O646       Zr652   2.389       .  S
O646        C655   1.281       .  A
O647       Zr652   2.369       .  S
O647        C656   1.279       .  A
Zr648       O654   2.339       .  S
Zr648       O666   2.318       .  S
Zr649       O653   2.342       .  S
Zr649       O664   2.354       .  S
Zr650       O654   2.346       .  S
Zr650       O664   2.344       .  S
Zr651       O653   2.347       .  S
Zr651       O666   2.326       .  S
Zr652       O653   2.352       .  S
Zr652       O654   2.336       .  S
Zr652       O666   2.335       .  S
Zr652       O664   2.345       .  S
H663        O664   0.966       .  S
H665        O666   0.965       .  S
O667       Zr703   2.478       .  S
O667        C678   1.301       .  A
O668       Zr702   2.531       .  S
O668        C679   1.309       .  A
O669       Zr675   2.484       .  S
O669        C680   1.302       .  A
O670       Zr675   2.518       .  S
O670        C681   1.306       .  A
O671       Zr705   2.362       .  S
O671        C681   1.277       .  A
O672       Zr704   2.381       .  S
O672        C680   1.280       .  A
O673       Zr675   2.355       .  S
O673        C679   1.276       .  A
O674       Zr675   2.398       .  S
O674        C678   1.282       .  A
Zr675       O676   2.345       .  S
Zr675       O677   2.329       .  S
Zr675       O685   2.334       .  S
Zr675       O683   2.354       .  S
O676       Zr702   2.345       .  S
O676       Zr705   2.341       .  S
O677       Zr703   2.314       .  S
O677       Zr704   2.327       .  S
H682        O683   0.966       .  S
O683       Zr702   2.345       .  S
O683       Zr704   2.348       .  S
H684        O685   0.966       .  S
O685       Zr703   2.337       .  S
O685       Zr705   2.353       .  S
O686       Zr702   2.508       .  S
O686        C709   1.308       .  A
O687       Zr703   2.468       .  S
O687        C710   1.298       .  A
O688       Zr704   2.478       .  S
O688        C711   1.298       .  A
O689       Zr705   2.509       .  S
O689        C712   1.307       .  A
O690       Zr705   2.529       .  S
O690        C713   1.308       .  A
O691       Zr704   2.463       .  S
O691        C714   1.297       .  A
O692       Zr706   2.515       .  S
O692        C715   1.306       .  A
O693       Zr706   2.517       .  S
O693        C716   1.309       .  A
O694       Zr704   2.372       .  S
O694        C715   1.278       .  A
O695       Zr705   2.388       .  S
O695        C716   1.280       .  A
O696       Zr702   2.412       .  S
O696        C711   1.288       .  A
O697       Zr703   2.406       .  S
O697        C714   1.284       .  A
O698       Zr703   2.360       .  S
O698        C713   1.276       .  A
O699       Zr702   2.396       .  S
O699        C712   1.283       .  A
O700       Zr706   2.385       .  S
O700        C709   1.281       .  A
O701       Zr706   2.402       .  S
O701        C710   1.286       .  A
Zr702       O708   2.343       .  S
Zr702       O720   2.345       .  S
Zr703       O707   2.349       .  S
Zr703       O718   2.342       .  S
Zr704       O708   2.337       .  S
Zr704       O718   2.341       .  S
Zr705       O707   2.334       .  S
Zr705       O720   2.325       .  S
Zr706       O707   2.332       .  S
Zr706       O708   2.349       .  S
Zr706       O720   2.337       .  S
Zr706       O718   2.353       .  S
H717        O718   0.966       .  S
H719        O720   0.965       .  S
C721        S727   1.698       .  A
C721        C726   1.406       .  A
C721        C722   1.399       .  A
C722        C723   1.395   1_565  A
C722        H733   1.084       .  S
C723        C732   1.365       .  A
C723        C724   1.384       .  A
C724        S730   1.696       .  A
C724        C725   1.392   1_545  A
C725        C726   1.400       .  A
C725        H734   1.084       .  S
C726        C729   1.372       .  A
S727        C728   1.714       .  A
C728        C729   1.382       .  A
C729        H735   1.085       .  S
S730        C731   1.722   1_556  A
C731        C732   1.381   1_554  A
C732        H736   1.083   1_556  S
C737        S743   1.698   1_545  A
C737        C742   1.383       .  A
C737        C738   1.393   1_655  A
C738        C739   1.401       .  A
C738        H749   1.084       .  S
C739        C748   1.373       .  A
C739        C740   1.407       .  A
C740        S746   1.700       .  A
C740        C741   1.400       .  A
C741        C742   1.396   1_455  A
C741        H750   1.084   1_455  S
C742        C745   1.366   1_545  A
S743        C744   1.722       .  A
C744        C745   1.382       .  A
C745        H751   1.083       .  S
S746        C747   1.714   1_455  A
C747        C748   1.382   1_655  A
C748        H752   1.086       .  S
C753        S759   1.696       .  A
C753        C758   1.383       .  A
C753        C754   1.392       .  A
C754        C755   1.401       .  A
C754        H765   1.084       .  S
C755        C764   1.373       .  A
C755        C756   1.407       .  A
C756        S762   1.700       .  A
C756        C757   1.401       .  A
C757        C758   1.396       .  A
C757        H766   1.084       .  S
C758        C761   1.369       .  A
S759        C760   1.723   1_554  A
C760        C761   1.383   1_556  A
C761        H767   1.083       .  S
S762        C763   1.714       .  A
C763        C764   1.382       .  A
C764        H768   1.086       .  S
C769        S775   1.697   1_655  A
C769        C774   1.384       .  A
C769        C770   1.393       .  A
C770        C771   1.401   1_556  A
C770        H781   1.084       .  S
C771        C780   1.373   1_554  A
C771        C772   1.406       .  A
C772        S778   1.698       .  A
C772        C773   1.400   1_554  A
C773        C774   1.395       .  A
C773        H782   1.084       .  S
C774        C777   1.366   1_655  A
S775        C776   1.723       .  A
C776        C777   1.381       .  A
C777        H783   1.083       .  S
S778        C779   1.712   1_554  A
C779        C780   1.384       .  A
C780        H784   1.085       .  S
C785        S791   1.696       .  A
C785        C790   1.383       .  A
C785        C786   1.391       .  A
C786        C787   1.399       .  A
C786        H797   1.084       .  S
C787        C796   1.372       .  A
C787        C788   1.406       .  A
C788        S794   1.700       .  A
C788        C789   1.402       .  A
C789        C790   1.397       .  A
C789        H798   1.084       .  S
C790        C793   1.368       .  A
S791        C792   1.720       .  A
C792        C793   1.384       .  A
C793        H799   1.083       .  S
S794        C795   1.717       .  A
C795        C796   1.380       .  A
C796        H800   1.085       .  S
C801        S807   1.698       .  A
C801        C806   1.384       .  A
C801        C802   1.393       .  A
C802        C803   1.401   1_554  A
C802        H813   1.084       .  S
C803        C812   1.373   1_556  A
C803        C804   1.406       .  A
C804        S810   1.698       .  A
C804        C805   1.399   1_556  A
C805        C806   1.395       .  A
C805        H814   1.084       .  S
C806        C809   1.365       .  A
S807        C808   1.723   1_455  A
C808        C809   1.381   1_655  A
C809        H815   1.083       .  S
S810        C811   1.713   1_556  A
C811        C812   1.383       .  A
C812        H816   1.085       .  S
C817        S823   1.699       .  A
C817        C822   1.383   1_655  A
C817        C818   1.393       .  A
C818        C819   1.402       .  A
C818        H829   1.084       .  S
C819        C828   1.373       .  A
C819        C820   1.407   1_655  A
C820        S826   1.699       .  A
C820        C821   1.399       .  A
C821        C822   1.395       .  A
C821        H830   1.084       .  S
C822        C825   1.366       .  A
S823        C824   1.723   1_655  A
C824        C825   1.381       .  A
C825        H831   1.083       .  S
S826        C827   1.712       .  A
C827        C828   1.384   1_455  A
C828        H832   1.086       .  S
C833        S839   1.699       .  A
C833        C838   1.406   1_655  A
C833        C834   1.399       .  A
C834        C835   1.395   1_655  A
C834        H845   1.084       .  S
C835        C844   1.365   1_455  A
C835        C836   1.383       .  A
C836        S842   1.700       .  A
C836        C837   1.393       .  A
C837        C838   1.402       .  A
C837        H846   1.084       .  S
C838        C841   1.372       .  A
S839        C840   1.713   1_655  A
C840        C841   1.384       .  A
C841        H847   1.085       .  S
S842        C843   1.722       .  A
C843        C844   1.382   1_455  A
C844        H848   1.083       .  S
C849        S855   1.696   1_565  A
C849        C854   1.384       .  A
C849        C850   1.390   1_565  A
C850        C851   1.399   1_545  A
C850        H861   1.084       .  S
C851        C860   1.372       .  A
C851        C852   1.406       .  A
C852        S858   1.700       .  A
C852        C853   1.402       .  A
C853        C854   1.397       .  A
C853        H862   1.084       .  S
C854        C857   1.367       .  A
S855        C856   1.718   1_545  A
C856        C857   1.384       .  A
C857        H863   1.083       .  S
S858        C859   1.718       .  A
C859        C860   1.380       .  A
C860        H864   1.085   1_565  S
C865        S871   1.698       .  A
C865        C870   1.383   1_545  A
C865        C866   1.393       .  A
C866        C867   1.401       .  A
C866        H877   1.084       .  S
C867        C876   1.373       .  A
C867        C868   1.407   1_545  A
C868        S874   1.699       .  A
C868        C869   1.400       .  A
C869        C870   1.395       .  A
C869        H878   1.084       .  S
C870        C873   1.366       .  A
S871        C872   1.723   1_545  A
C872        C873   1.381       .  A
C873        H879   1.083       .  S
S874        C875   1.712       .  A
C875        C876   1.384   1_565  A
C876        H880   1.086       .  S
C881        S887   1.696       .  A
C881        C886   1.383   1_554  A
C881        C882   1.391       .  A
C882        C883   1.400       .  A
C882        H893   1.084       .  S
C883        C892   1.372       .  A
C883        C884   1.407   1_554  A
C884        S890   1.700       .  A
C884        C885   1.401       .  A
C885        C886   1.397       .  A
C885        H894   1.084       .  S
C886        C889   1.368       .  A
S887        C888   1.721   1_554  A
C888        C889   1.383       .  A
C889        H895   1.083       .  S
S890        C891   1.715       .  A
C891        C892   1.382   1_556  A
C892        H896   1.086       .  S
C897        S903   1.699       .  A
C897        C902   1.406   1_556  A
C897        C898   1.400       .  A
C898        C899   1.396       .  A
C898        H909   1.084       .  S
C899        C908   1.367       .  A
C899        C900   1.383   1_556  A
C900        S906   1.697       .  A
C900        C901   1.393       .  A
C901        C902   1.401       .  A
C901        H910   1.084       .  S
C902        C905   1.373       .  A
S903        C904   1.713   1_556  A
C904        C905   1.384       .  A
C905        H911   1.085       .  S
S906        C907   1.723       .  A
C907        C908   1.382   1_554  A
C908        H912   1.083       .  S
