geometry optimzed in LAMMPS
_audit_creation_date              2020-11-30 
_audit_creation_method            'lammps2cif' 
_symmetry_space_group_name_H-M    'P1' 
_symmetry_Int_Tables_number       1 
_symmetry_cell_setting            triclinic 
loop_ 
_symmetry_equiv_pos_as_xyz 
  x,y,z 
_cell_length_a                    36.52265401 
_cell_length_b                    35.27917564681888 
_cell_length_c                    70.34635403261957 
_cell_angle_alpha                 89.50726327456698 
_cell_angle_beta                  92.35398842703113 
_cell_angle_gamma                 90.48213351003398 
loop_ 
_atom_site_label 
_atom_site_type_symbol 
_atom_site_fract_x 
_atom_site_fract_y 
_atom_site_fract_z 
_atom_site_charge 
N1          N  0.43930389  0.24417774  0.36182383    -0.35800
N2          N  0.42222143  0.19282281  0.39216317    -0.56300
N3          N  0.41553700  0.25793333  0.41735859    -0.35800
N4          N  0.43561060  0.30863129  0.38723046    -0.56300
C5          C  0.44764961  0.21034683  0.35428577     0.27800
C6          C  0.45656780  0.27113692  0.35170266     0.27800
C7          C  0.41901770  0.22872096  0.42996227     0.27800
C8          C  0.42073743  0.29071764  0.42710559     0.27800
C9          C  0.41621561  0.16950233  0.37715824     0.36400
C10         C  0.40581059  0.17662562  0.40707270     0.36400
C11         C  0.44053870  0.32728305  0.37067230     0.36400
C12         C  0.42566732  0.33504237  0.39977303     0.36400
C13         C  0.47068798  0.21587353  0.33930312    -0.21000
C14         C  0.47604927  0.25428939  0.33756013    -0.21000
C15         C  0.42797796  0.24326852  0.44784875    -0.21000
C16         C  0.42744471  0.28229246  0.44618817    -0.21000
C17         C  0.39568006  0.13832569  0.38244606    -0.22100
C18         C  0.38888539  0.14290147  0.40140975    -0.22100
C19         C  0.43484589  0.36574202  0.37283453    -0.22100
C20         C  0.42540212  0.37068044  0.39126443    -0.22100
C21         C  0.43171393  0.17519156  0.35927824    -0.17500
C22         C  0.45299562  0.31059744  0.35404364    -0.17500
C23         C  0.41818513  0.32774281  0.41903510    -0.17400
C24         C  0.40948411  0.19012799  0.42602200    -0.17400
H25         H  0.48169157  0.19451018  0.33022562     0.15500
H26         H  0.49203231  0.26817562  0.32687537     0.15500
H27         H  0.43227066  0.22747514  0.46099691     0.15500
H28         H  0.43159697  0.30190918  0.45779678     0.15500
H29         H  0.38707196  0.11457992  0.37365850     0.13700
H30         H  0.37386191  0.12324591  0.41011810     0.13700
H31         H  0.43766049  0.38802652  0.36231382     0.13700
H32         H  0.41962881  0.39760483  0.39770868     0.13700
H33         H  0.41917725  0.24891374  0.37155179     0.27000
H34         H  0.40525253  0.25596349  0.40338751     0.27000
N35         N  0.18482231  0.27096254  0.35946964    -0.35800
N36         N  0.19762901  0.20833709  0.38667242    -0.56300
N37         N  0.20189507  0.26038179  0.41637263    -0.35800
N38         N  0.18711709  0.32450117  0.38950278    -0.56300
C39         C  0.17211063  0.24065222  0.34961504     0.27800
C40         C  0.17016924  0.30218497  0.35100045     0.27800
C41         C  0.19758582  0.22733190  0.42614783     0.27800
C42         C  0.19163942  0.28913519  0.42748470     0.27800
C43         C  0.20273262  0.19189574  0.36981114     0.36400
C44         C  0.21468724  0.18650205  0.40013399     0.36400
C45         C  0.19370651  0.34739507  0.37449949     0.36400
C46         C  0.20147281  0.34219159  0.40497276     0.36400
C47         C  0.14873604  0.25262990  0.33473850    -0.21000
C48         C  0.14756978  0.29166599  0.33560028    -0.21000
C49         C  0.18295061  0.23531021  0.44355110    -0.21000
C50         C  0.18024580  0.27443026  0.44460619    -0.21000
C51         C  0.22341459  0.15943317  0.37235564    -0.22100
C52         C  0.23199190  0.15659255  0.39157856    -0.22100
C53         C  0.21235425  0.37978313  0.38037868    -0.22100
C54         C  0.21716649  0.37660324  0.39979540    -0.22100
C55         C  0.18410951  0.20314036  0.35284392    -0.17500
C56         C  0.18051202  0.33964149  0.35587172    -0.17500
C57         C  0.19951986  0.32782926  0.42367791    -0.17400
C58         C  0.20996067  0.19131279  0.41990016    -0.17400
H59         H  0.13490698  0.23518942  0.32404212     0.15500
H60         H  0.13266923  0.31022543  0.32575638     0.15500
H61         H  0.17669333  0.21525321  0.45470419     0.15500
H62         H  0.17197152  0.29034788  0.45677026     0.15500
H63         H  0.23092832  0.13965023  0.36153437     0.13700
H64         H  0.24757531  0.13406402  0.39849210     0.13700
H65         H  0.22117276  0.40326413  0.37163395     0.13700
H66         H  0.23069113  0.39725870  0.40899397     0.13700
H67         H  0.20593438  0.27064883  0.36990358     0.27000
H68         H  0.21656097  0.26403695  0.40407462     0.27000
O69         O  0.37255549  0.46592500  0.47631571    -0.79300
O70         O  0.32952329  0.08479784  0.52120400    -0.79300
O71         O  0.36130692  0.04065164  0.47601748    -0.79300
O72         O  0.36821174  0.47999904  0.54648093    -0.79300
O73         O  0.32436356  0.08617246  0.48298759    -0.79400
O74         O  0.38303391  0.46658867  0.51733376    -0.79300
O75         O  0.37198383  0.04253664  0.52008645    -0.79300
O76         O  0.34267561  0.48447875  0.45023335    -0.79300
C77         C  0.36489340  0.46118302  0.45837499     1.10400
C78         C  0.36245487  0.07526665  0.52478358     1.10300
C79         C  0.35449141  0.07574041  0.47664725     1.10400
C80         C  0.38564171  0.45898761  0.53525930     1.10300
O81         O  0.31697218  0.41888899  0.51876658    -0.79300
O82         O  0.25216088  0.05273203  0.48291011    -0.79400
O83         O  0.27926269  0.46845763  0.46783929    -0.79300
O84         O  0.30510153  0.03656056  0.54256759    -0.79300
O85         O  0.25945127  0.04586495  0.52198721    -0.79300
O86         O  0.30730094  0.42210066  0.48208337    -0.79300
O87         O  0.29725673  0.46393555  0.53562397    -0.79300
O88         O  0.28792668  0.04481803  0.45933742    -0.79300
Co89       Co  0.34231741  0.44915518  0.49884335     1.51500
Co90       Co  0.29211642  0.06277264  0.50210658     1.51700
Co91       Co  0.31877227  0.00429950  0.47301561     1.51600
Co92       Co  0.33435473  0.00277021  0.52590011     1.51500
O93         O  0.30880868  0.00633908  0.50050644    -1.41200
C94         C  0.29871434  0.42919442  0.53241188     1.10300
C95         C  0.25975890  0.06018133  0.46592814     1.10400
C96         C  0.28190553  0.43343724  0.47113523     1.10400
C97         C  0.27287000  0.04903949  0.53868188     1.10300
N98         N  0.43122425  0.25602952  0.63898901    -0.35800
N99         N  0.41446831  0.31033466  0.61021196    -0.56300
N100        N  0.42510450  0.25372851  0.58052916    -0.35800
N101        N  0.44706479  0.19967769  0.60915744    -0.56300
C102        C  0.43195678  0.28831047  0.64938371     0.27800
C103        C  0.45050151  0.22981753  0.64915646     0.27800
C104        C  0.42778135  0.28620007  0.57028785     0.27800
C105        C  0.43493520  0.22481886  0.56933475     0.27800
C106        C  0.40192145  0.32941708  0.62519252     0.36400
C107        C  0.40356004  0.32968740  0.59442568     0.36400
C108        C  0.45140809  0.17790384  0.62503030     0.36400
C109        C  0.44360497  0.17550395  0.59425803     0.36400
C110        C  0.45188211  0.28232869  0.66630541    -0.21000
C111        C  0.46267368  0.24531009  0.66640074    -0.21000
C112        C  0.44015909  0.27778700  0.55244217    -0.21000
C113        C  0.44309123  0.23896264  0.55156420    -0.21000
C114        C  0.38198307  0.36052286  0.61887356    -0.22100
C115        C  0.38338250  0.36095874  0.59937118    -0.22100
C116        C  0.45269628  0.13997606  0.62009173    -0.22100
C117        C  0.44749914  0.13844634  0.60066545    -0.22100
C118        C  0.41417790  0.32265459  0.64422022    -0.17500
C119        C  0.45523533  0.19158933  0.64393140    -0.17500
C120        C  0.43563984  0.18621896  0.57496324    -0.17400
C121        C  0.41574612  0.32237405  0.57598641    -0.17400
H122        H  0.45794507  0.30228988  0.67760396     0.15500
H123        H  0.47783363  0.23171558  0.67803458     0.15500
H124        H  0.44499704  0.29734759  0.54086844     0.15500
H125        H  0.45082415  0.22361895  0.53920178     0.15500
H126        H  0.37001176  0.38205337  0.62749378     0.13700
H127        H  0.37207316  0.38259562  0.58993814     0.13700
H128        H  0.45642975  0.11579692  0.62952092     0.13700
H129        H  0.44639688  0.11293500  0.59221511     0.13700
H130        H  0.41533061  0.25064065  0.62668647     0.27000
H131        H  0.41302958  0.25069753  0.59357932     0.27000
N132        N  0.24249455  0.24109789  0.59084135    -0.35800
N133        N  0.23079715  0.18402219  0.62133231    -0.56300
N134        N  0.21345324  0.24360080  0.64598742    -0.35800
N135        N  0.22638278  0.30077971  0.61657677    -0.56300
C136        C  0.25767032  0.20926448  0.58415832     0.27800
C137        C  0.25745903  0.27130663  0.58184341     0.27800
C138        C  0.21493410  0.21441725  0.65861880     0.27800
C139        C  0.21199806  0.27582448  0.65599121     0.27800
C140        C  0.22705484  0.16366164  0.60527940     0.36400
C141        C  0.21380411  0.16382800  0.63483023     0.36400
C142        C  0.22630325  0.32031255  0.59992792     0.36400
C143        C  0.20728144  0.32148174  0.62879879     0.36400
C144        C  0.28277295  0.21915503  0.57066779    -0.21000
C145        C  0.28280296  0.25837390  0.56929159    -0.21000
C146        C  0.21509178  0.22828277  0.67696106    -0.21000
C147        C  0.21333564  0.26716106  0.67532138    -0.21000
C148        C  0.20753051  0.13047859  0.60857091    -0.22100
C149        C  0.20008518  0.13006596  0.62744965    -0.22100
C150        C  0.20743838  0.35396479  0.60166730    -0.22100
C151        C  0.19527521  0.35464397  0.61996990    -0.22100
C152        C  0.24600102  0.17187424  0.58869273    -0.17500
C153        C  0.24661980  0.30969223  0.58405721    -0.17500
C154        C  0.20217597  0.31139627  0.64805095    -0.17400
C155        C  0.21015738  0.17603343  0.65366139    -0.17400
H156        H  0.29877599  0.20008019  0.56242628     0.15500
H157        H  0.29899520  0.27533977  0.55984649     0.15500
H158        H  0.21446806  0.21204789  0.69006880     0.15500
H159        H  0.21096907  0.28667310  0.68698914     0.15500
H160        H  0.20054903  0.10817203  0.59856364     0.13700
H161        H  0.18566953  0.10770359  0.63472509     0.13700
H162        H  0.20343849  0.37592790  0.59096402     0.13700
H163        H  0.17990869  0.37719247  0.62616424     0.13700
H164        H  0.21988618  0.24159411  0.59937767     0.27000
H165        H  0.20667031  0.24166659  0.63154647     0.27000
C166        C  0.46723374  0.08023158  0.29739420     0.43300
N167        N  0.00867887  0.07302589  0.27413026     0.02200
C168        C  0.00894488  0.41374955  0.21643907    -0.05700
H169        H  0.04520559  0.38790923  0.28791246     0.07700
C170        C  0.15216528  0.47632980  0.28527999    -0.06000
Co171      Co  0.49279957  0.49794503  0.25364339     0.74200
N172        N  0.02711972  0.43721205  0.27188002    -0.25200
Co173      Co  0.06349607  0.44253308  0.24987163     0.74100
C174        C  0.14451476  0.43922318  0.29350164     0.43400
N175        N  0.11655173  0.06066330  0.27343317     0.01800
N176        N  0.10665100  0.44874579  0.27004686     0.01900
N177        N  0.46819261  0.45239388  0.22005518    -0.46100
H178        H  0.43770077  0.02315438  0.29226913     0.07700
N179        N  0.99919351  0.46032576  0.27352169     0.02200
N180        N  0.10170331  0.44997055  0.22832992     0.01900
C181        C  0.14282394  0.44119197  0.20737394     0.43500
N182        N  0.08837518  0.08391699  0.27248189    -0.24700
C183        C  0.44854613  0.04950480  0.22062860    -0.05600
N184        N  0.00403774  0.09744803  0.28802369    -0.45800
N185        N  0.11227627  0.42591843  0.21512284    -0.46000
C186        C  0.45621489  0.08488353  0.21084753     0.43300
N187        N  0.99049485  0.46125229  0.23247952     0.02200
N188        N  0.08447773  0.08117523  0.23069720    -0.24700
N189        N  0.98819201  0.04225714  0.27578920    -0.25200
N190        N  0.11333121  0.05878554  0.23212355     0.01800
H191        H  0.06760849  0.12314471  0.20943767     0.07700
H192        H  0.17529850  0.49303787  0.21884705     0.07800
N193        N  0.01838854  0.43842906  0.23042222    -0.25200
N194        N  0.12725591  0.47967538  0.27079887    -0.24800
N195        N  0.00137386  0.07104927  0.23219284     0.02200
C196        C  0.50310742  0.41077246  0.29449454     0.43600
C197        C  0.09262816  0.10946422  0.28634606    -0.06100
N198        N  0.12378572  0.47957571  0.22978694    -0.24800
H199        H  0.17347999  0.49665480  0.28910280     0.07700
N200        N  0.48600136  0.44217697  0.28748165    -0.46100
H201        H  0.07425201  0.13252314  0.28900900     0.07700
C202        C  0.12150816  0.09011979  0.20649795     0.43400
C203        C  0.45870601  0.04358791  0.28883965    -0.05600
Co204      Co  0.04560167  0.07848979  0.25210834     0.73800
N205        N  0.14095089  0.06949223  0.28720412    -0.45800
C206        C  0.47731935  0.42456927  0.20836987     0.43700
N207        N  0.98975474  0.09347131  0.21786148    -0.45800
Co208      Co  0.12077496  0.01832603  0.25332835     0.73900
C209        C  0.15066318  0.47603260  0.21781839    -0.06100
C210        C  0.02648101  0.41131409  0.28587279    -0.05700
N211        N  0.97966640  0.04138508  0.23433922    -0.25200
N212        N  0.11600015  0.42384296  0.28348151    -0.46000
H213        H  0.02570122  0.39031919  0.21249145     0.07700
C214        C  0.08721975  0.10240073  0.21472584    -0.06100
Cl215      Cl  0.05450539  0.51181904  0.25054831    -0.49100
C216        C  0.12720228  0.09970137  0.29603410     0.43500
H217        H  0.42444298  0.03162165  0.21966499     0.07700
N218        N  0.13569544  0.06309350  0.21801585    -0.45800
O219        O  0.46450200  0.22084766  0.98545719    -0.79300
O220        O  0.11086241  0.22633980  0.02068913    -0.79300
O221        O  0.09511635  0.20295934  0.98298785    -0.79300
O222        O  0.99688060  0.20003813  0.03630558    -0.79300
O223        O  0.12989546  0.25444592  0.99004907    -0.79400
O224        O  0.45417948  0.23797424  0.02269103    -0.79300
O225        O  0.06906505  0.19205927  0.03333119    -0.79300
O226        O  0.00846712  0.17859628  0.98178608    -0.79300
C227        C  0.97556356  0.18943669  0.97932487     1.10400
C228        C  0.10201782  0.19792639  0.03037372     1.10300
C229        C  0.12644701  0.22160385  0.98253977     1.10400
C230        C  0.46253240  0.20973440  0.03295848     1.10300
O231        O  0.48461345  0.31051112  0.01986222    -0.79300
O232        O  0.07316142  0.29622034  0.97948974    -0.79400
O233        O  0.00804028  0.25179927  0.96483800    -0.79300
O234        O  0.08237467  0.27260284  0.04394603    -0.79300
O235        O  0.09967207  0.30312365  0.01805030    -0.79300
O236        O  0.49481669  0.29836934  0.98148078    -0.79300
O237        O  0.00590937  0.27777022  0.04646606    -0.79300
O238        O  0.06300494  0.24520398  0.96340309    -0.79300
Co239      Co  0.98067318  0.26696322  0.00371978     1.51500
Co240      Co  0.08504587  0.26047950  0.00136533     1.51700
Co241      Co  0.04080046  0.22251064  0.98506680     1.51600
Co242      Co  0.03863596  0.23654547  0.03789223     1.51500
O243        O  0.03401070  0.25135474  0.00966507    -1.41200
C244        C  0.48478586  0.30462740  0.03772079     1.10300
C245        C  0.07505217  0.27860039  0.96376090     1.10400
C246        C  0.99366349  0.28441657  0.96696938     1.10400
C247        C  0.10226580  0.29803594  0.03595857     1.10300
N248        N  0.25957584  0.28922208  0.86646695    -0.35800
N249        N  0.31230805  0.29187860  0.89899076    -0.56300
N250        N  0.36090167  0.33622370  0.87631985    -0.35800
N251        N  0.30458396  0.34349011  0.84718172    -0.56300
C252        C  0.24286435  0.27035133  0.88038241     0.27800
C253        C  0.23365246  0.30992453  0.85696830     0.27800
C254        C  0.37870648  0.33913223  0.89348981     0.27800
C255        C  0.37675315  0.36119304  0.86444095     0.27800
C256        C  0.28931744  0.26489426  0.90541650     0.36400
C257        C  0.34134075  0.29287131  0.91156050     0.36400
C258        C  0.27529587  0.34097060  0.83499815     0.36400
C259        C  0.33282645  0.35528829  0.83688206     0.36400
C260        C  0.20611929  0.27911992  0.88007724    -0.21000
C261        C  0.20002784  0.30399753  0.86503658    -0.21000
C262        C  0.40604969  0.36658764  0.89249009    -0.21000
C263        C  0.40507384  0.38019691  0.87407101    -0.21000
C264        C  0.30190257  0.25158942  0.92286453    -0.22100
C265        C  0.33542499  0.26811860  0.92655887    -0.22100
C266        C  0.28457716  0.35182990  0.81686236    -0.22100
C267        C  0.32143997  0.36015634  0.81795952    -0.22100
C268        C  0.26114329  0.24764400  0.89408868    -0.17500
C269        C  0.23980686  0.33220981  0.84066805    -0.17500
C270        C  0.36745466  0.36555567  0.84486046    -0.17400
C271        C  0.37349902  0.31501143  0.90941149    -0.17400
H272        H  0.18629621  0.26931859  0.88995347     0.15500
H273        H  0.17403550  0.31648470  0.86064535     0.15500
H274        H  0.42541025  0.37511361  0.90374217     0.15500
H275        H  0.42321130  0.40149111  0.86838232     0.15500
H276        H  0.28851463  0.23064028  0.93140024     0.13700
H277        H  0.35350629  0.26179475  0.93869520     0.13700
H278        H  0.26666490  0.35352276  0.80424390     0.13700
H279        H  0.33759190  0.37011730  0.80633809     0.13700
H280        H  0.28677853  0.28548036  0.86302710     0.27000
H281        H  0.34269723  0.31483974  0.87211144     0.27000
N282        N  0.32591429  0.14803443  0.84442152    -0.35800
N283        N  0.37578373  0.15409920  0.87796162    -0.56300
N284        N  0.31995151  0.18664663  0.90023192    -0.35800
N285        N  0.26476108  0.16718100  0.86622586    -0.56300
C286        C  0.35761913  0.13474954  0.83797072     0.27800
C287        C  0.29826729  0.13234608  0.83355974     0.27800
C288        C  0.33790987  0.16089986  0.91130405     0.27800
C289        C  0.28395860  0.18232229  0.90308474     0.27800
C290        C  0.40020301  0.15711374  0.86412954     0.36400
C291        C  0.39360877  0.16255739  0.89473107     0.36400
C292        C  0.24580140  0.15947989  0.85004738     0.36400
C293        C  0.24292291  0.18780398  0.87698705     0.36400
C294        C  0.35018298  0.11114239  0.82256541    -0.21000
C295        C  0.31277226  0.10945499  0.81987428    -0.21000
C296        C  0.31287951  0.13826677  0.92054889    -0.21000
C297        C  0.27832742  0.15160302  0.91502473    -0.21000
C298        C  0.43389982  0.16853456  0.87202918    -0.22100
C299        C  0.42962893  0.17244512  0.89141142    -0.22100
C300        C  0.21056682  0.17369849  0.85073285    -0.22100
C301        C  0.20905981  0.19264767  0.86779851    -0.22100
C302        C  0.39319679  0.14443005  0.84520340    -0.17500
C303        C  0.26030357  0.13895462  0.83514776    -0.17500
C304        C  0.25672709  0.20465601  0.89381167    -0.17400
C305        C  0.37645813  0.15890947  0.91255167    -0.17400
H306        H  0.36965779  0.09630747  0.81420467     0.15500
H307        H  0.29796848  0.09338743  0.80895778     0.15500
H308        H  0.31895623  0.11487333  0.93018446     0.15500
H309        H  0.25229198  0.14077153  0.91960040     0.15500
H310        H  0.45910250  0.17259512  0.86467272     0.13700
H311        H  0.45072303  0.18091219  0.90179948     0.13700
H312        H  0.18877506  0.17164114  0.83988386     0.13700
H313        H  0.18575134  0.20749851  0.87288047     0.13700
H314        H  0.32409332  0.16894107  0.85467247     0.27000
H315        H  0.33176253  0.20715549  0.89152549     0.27000
C316        C  0.46354253  0.41517591  0.70484963     0.43300
N317        N  0.48553683  0.45594602  0.72504796     0.02200
C318        C  0.15744705  0.04322181  0.72082372    -0.05700
H319        H  0.16390314  0.40233234  0.73003764     0.07700
C320        C  0.09793747  0.42272228  0.79522955    -0.06000
Co321      Co  0.05442509  0.48399675  0.71102143     0.74200
N322        N  0.11563898  0.43659889  0.72635627    -0.25200
Co323      Co  0.12298272  0.48061302  0.74567470     0.74100
C324        C  0.13002856  0.40108014  0.79022733     0.43400
N325        N  0.01150214  0.46020260  0.78029818     0.01800
N326        N  0.11798699  0.44294714  0.76848509     0.01900
N327        N  0.11242140  0.04389270  0.69798492    -0.46100
H328        H  0.01291401  0.41199270  0.68994135     0.07700
N329        N  0.08925445  0.43793772  0.71304576     0.02200
N330        N  0.13163065  0.02045617  0.76789912     0.01900
C331        C  0.15305767  0.06449476  0.78592187     0.43500
N332        N  0.48749316  0.46278687  0.76793911    -0.24700
C333        C  0.02387151  0.05672623  0.69699084    -0.05600
N334        N  0.45489913  0.43763481  0.71957730    -0.45800
N335        N  0.16013897  0.04338775  0.77065242    -0.46000
C336        C  0.49427073  0.08308674  0.70276283     0.43300
N337        N  0.10494430  0.01979361  0.71180116     0.02200
N338        N  0.49851697  0.04465465  0.76722049    -0.24700
N339        N  0.00890190  0.44957714  0.71345942    -0.25200
N340        N  0.02716219  0.03848416  0.78007105     0.01800
H341        H  0.45021211  0.07937125  0.76506864     0.07700
H342        H  0.10447283  0.05956257  0.80560195     0.07800
N343        N  0.13086156  0.01841944  0.72534895    -0.25200
N344        N  0.09264800  0.44787988  0.78103538    -0.24800
N345        N  0.49936307  0.04020216  0.72427411     0.02200
C346        C  0.12356649  0.39246314  0.70446605     0.43600
C347        C  0.45890461  0.44161362  0.77310772    -0.06100
N348        N  0.10671421  0.02453589  0.78074211    -0.24800
H349        H  0.08411540  0.42287397  0.80853576     0.07700
N350        N  0.09311271  0.41234461  0.69967311    -0.46100
H351        H  0.43241174  0.44039112  0.76567282     0.07700
C352        C  0.49207118  0.08775776  0.79012257     0.43400
C353        C  0.99817344  0.42138754  0.70205215    -0.05600
Co354      Co  0.49208007  0.50017191  0.74493052     0.73800
N355        N  0.00174684  0.43851744  0.79469423    -0.45800
C356        C  0.14529893  0.06005153  0.70228704     0.43700
N357        N  0.47948065  0.07016060  0.71895023    -0.45800
Co358      Co  0.05814978  0.49452636  0.77965494     0.73900
C359        C  0.11796723  0.05164037  0.79284149    -0.06100
C360        C  0.13816084  0.40815109  0.72247454    -0.05700
N361        N  0.02553533  0.03175708  0.71113813    -0.25200
N362        N  0.14108104  0.41556181  0.77354152    -0.46000
H363        H  0.18169162  0.04889089  0.72966045     0.07700
C364        C  0.47657289  0.07325298  0.77192506    -0.06100
Cl365      Cl  0.05621392  0.49029418  0.74524436    -0.49100
C366        C  0.47003456  0.42590014  0.79173270     0.43500
H367        H  0.03821744  0.05448268  0.68404140     0.07700
N368        N  0.02422137  0.06169721  0.79456107    -0.45800
N369        N  0.28355686  0.11346214  0.14118049    -0.35800
N370        N  0.22848031  0.11064505  0.10973671    -0.56300
N371        N  0.28625608  0.12543126  0.08299660    -0.35800
N372        N  0.34169333  0.12500377  0.11443052    -0.56300
C373        C  0.25377266  0.10061698  0.15021935     0.27800
C374        C  0.31358297  0.10487210  0.15238380     0.27800
C375        C  0.25675041  0.12765544  0.07068841     0.27800
C376        C  0.31660469  0.13253143  0.07305762     0.27800
C377        C  0.20563107  0.10875025  0.12437313     0.36400
C378        C  0.20706884  0.11493216  0.09372902     0.36400
C379        C  0.36099460  0.12989211  0.13106480     0.36400
C380        C  0.36242741  0.13948582  0.10058589     0.36400
C381        C  0.26487064  0.08412081  0.16741926    -0.21000
C382        C  0.30255976  0.08618671  0.16864260    -0.21000
C383        C  0.26871674  0.13494980  0.05255695    -0.21000
C384        C  0.30632382  0.13680377  0.05394132    -0.21000
C385        C  0.16953588  0.11027771  0.11759469    -0.22100
C386        C  0.17040557  0.11313554  0.09822869    -0.22100
C387        C  0.39426955  0.14737090  0.12778550    -0.22100
C388        C  0.39519568  0.15345201  0.10852583    -0.22100
C389        C  0.21667135  0.10457336  0.14377003    -0.17500
C390        C  0.35033468  0.11591377  0.14896366    -0.17500
C391        C  0.35242372  0.14078667  0.08086982    -0.17400
C392        C  0.21934816  0.12635875  0.07558415    -0.17400
H393        H  0.24758473  0.07166282  0.17795481     0.15500
H394        H  0.31980577  0.07580169  0.18040011     0.15500
H395        H  0.25228935  0.13968689  0.03964357     0.15500
H396        H  0.32384575  0.14335979  0.04229833     0.15500
H397        H  0.14499844  0.10963073  0.12570109     0.13700
H398        H  0.14661594  0.11580769  0.08863207     0.13700
H399        H  0.41572688  0.15481735  0.13818761     0.13700
H400        H  0.41743087  0.16693801  0.10125076     0.13700
H401        H  0.28292376  0.13098626  0.12925607     0.27000
H402        H  0.28552731  0.12253868  0.09749135     0.27000
N403        N  0.30290361  0.37547187  0.14362062    -0.35800
N404        N  0.24374005  0.36584623  0.11624691    -0.56300
N405        N  0.29604821  0.36235979  0.08573413    -0.35800
N406        N  0.35532421  0.37132738  0.11439605    -0.56300
C407        C  0.27444056  0.37010461  0.15509447     0.27800
C408        C  0.33417148  0.36937513  0.15411327     0.27800
C409        C  0.26565808  0.34534888  0.07783646     0.27800
C410        C  0.32554714  0.34993276  0.07653879     0.27800
C411        C  0.22536787  0.38069900  0.13067245     0.36400
C412        C  0.22237046  0.37075811  0.10033701     0.36400
C413        C  0.37731141  0.38438753  0.12883713     0.36400
C414        C  0.37313607  0.37774582  0.09824397     0.36400
C415        C  0.28757026  0.36010822  0.17316668    -0.21000
C416        C  0.32531867  0.35901490  0.17248941    -0.21000
C417        C  0.27606498  0.32185831  0.06331534    -0.21000
C418        C  0.31379624  0.32508162  0.06237824    -0.21000
C419        C  0.19219267  0.39531834  0.12393125    -0.22100
C420        C  0.19036152  0.38916985  0.10463136    -0.22100
C421        C  0.40909330  0.39985624  0.12178897    -0.22100
C422        C  0.40672026  0.39499198  0.10239812    -0.22100
C423        C  0.23768524  0.37905519  0.14992907    -0.17500
C424        C  0.36980948  0.37959773  0.14827686    -0.17500
C425        C  0.36247857  0.36128813  0.08066122    -0.17400
C426        C  0.22897651  0.35280442  0.08294881    -0.17400
H427        H  0.27168963  0.35532833  0.18563182     0.15500
H428        H  0.34418099  0.35359491  0.18445472     0.15500
H429        H  0.25833505  0.30446463  0.05422436     0.15500
H430        H  0.33063309  0.31057811  0.05250486     0.15500
H431        H  0.17124523  0.40830364  0.13209320     0.13700
H432        H  0.16749034  0.39598443  0.09496962     0.13700
H433        H  0.43211092  0.41215574  0.12978521     0.13700
H434        H  0.42772425  0.40217348  0.09253451     0.13700
H435        H  0.30119855  0.38896612  0.13040826     0.27000
H436        H  0.29638461  0.38367886  0.09591152     0.27000
C437        C  0.18206654  0.08273729  0.79776021    -0.04500
C438        C  0.19742299  0.06346878  0.81377368    -0.01600
C439        C  0.22247859  0.08227891  0.82614390     0.03400
C440        C  0.23406461  0.11948175  0.82180934    -0.04500
C441        C  0.22129012  0.13741852  0.80485325    -0.01600
C442        C  0.19442703  0.11944077  0.79308672     0.03400
C443        C  0.18892817  0.02376856  0.81697686     0.38000
C444        C  0.23659064  0.17366517  0.79929234     0.38000
C445        C  0.17928312  0.13863556  0.77626134     0.36400
C446        C  0.23675585  0.06326268  0.84323683     0.36400
N447        N  0.16696739  0.15379090  0.76284562    -0.38400
N448        N  0.24816650  0.04821547  0.85688488    -0.38400
N449        N  0.24933502  0.20221908  0.79461395    -0.37800
N450        N  0.18289613  0.99187246  0.81931075    -0.37800
C451        C  0.42423050  0.13440376  0.83300648    -0.04500
C452        C  0.44291136  0.10006573  0.83653356    -0.01600
C453        C  0.46619017  0.08549465  0.82292665     0.03400
C454        C  0.47023213  0.10469811  0.80529184    -0.04500
C455        C  0.45223913  0.13951855  0.80197063    -0.01600
C456        C  0.42934597  0.15433712  0.81576169     0.03400
C457        C  0.43521906  0.07767920  0.85334643     0.38000
C458        C  0.45692748  0.15986150  0.78421033     0.38000
C459        C  0.40907565  0.18884545  0.81168906     0.36400
C460        C  0.48384494  0.04934271  0.82679674     0.36400
N461        N  0.39261942  0.21614637  0.80831286    -0.38400
N462        N  0.49780776  0.02051578  0.82998771    -0.38400
N463        N  0.46074489  0.17594423  0.77001012    -0.37800
N464        N  0.42865834  0.05955755  0.86658399    -0.37800
C465        C  0.20842827  0.34870965  0.82931873    -0.04500
C466        C  0.20070088  0.38767080  0.83087850    -0.01600
C467        C  0.17400134  0.40458233  0.81859261     0.03400
C468        C  0.15588637  0.38284905  0.80419684    -0.04500
C469        C  0.16343703  0.34382892  0.80278733    -0.01600
C470        C  0.18879547  0.32657042  0.81573734     0.03400
C471        C  0.22074113  0.41043701  0.84497285     0.38000
C472        C  0.14567746  0.32159982  0.78776689     0.38000
C473        C  0.19494043  0.28610097  0.81511668     0.36400
C474        C  0.16606382  0.44458615  0.82045708     0.36400
N475        N  0.19953855  0.25371190  0.81501577    -0.38400
N476        N  0.15957134  0.47642437  0.82207282    -0.38400
N477        N  0.13180381  0.30388515  0.77567654    -0.37800
N478        N  0.23689133  0.42852822  0.85616735    -0.37800
C479        C  0.39509332  0.38233381  0.83219083    -0.04500
C480        C  0.42461753  0.36001242  0.82658996    -0.01600
C481        C  0.45006395  0.37498954  0.81396676     0.03400
C482        C  0.44515453  0.41171000  0.80626117    -0.04500
C483        C  0.41632661  0.43453828  0.81233729    -0.01600
C484        C  0.39122805  0.41979109  0.82522023     0.03400
C485        C  0.42763883  0.32094625  0.83305994     0.38000
C486        C  0.41302366  0.47351232  0.80576174     0.38000
C487        C  0.36076261  0.44268023  0.83086450     0.36400
C488        C  0.48103731  0.35241773  0.80870341     0.36400
N489        N  0.33617954  0.46072669  0.83518307    -0.38400
N490        N  0.00171571  0.33397937  0.80141678    -0.38400
N491        N  0.41044855  0.50465308  0.80060183    -0.37800
N492        N  0.42966075  0.28967647  0.83807242    -0.37800
C493        C  0.13095730  0.17716729  0.04148555    -0.04500
C494        C  0.14982355  0.14628487  0.03400393    -0.01600
C495        C  0.17810513  0.12839363  0.04514681     0.03400
C496        C  0.19119343  0.14500090  0.06242846    -0.04500
C497        C  0.17399840  0.17802765  0.06885080    -0.01600
C498        C  0.14159679  0.19071350  0.05964861     0.03400
C499        C  0.13907878  0.13205005  0.01534124     0.38000
C500        C  0.18822017  0.19750634  0.08575801     0.38000
C501        C  0.11645952  0.21284693  0.07025564     0.36400
C502        C  0.19271131  0.09256175  0.03919528     0.36400
N503        N  0.09560595  0.22797586  0.07943727    -0.38400
N504        N  0.20430866  0.06384740  0.03450083    -0.38400
N505        N  0.19970380  0.21262211  0.09929443    -0.37800
N506        N  0.13054832  0.12074873  0.00040109    -0.37800
C507        C  0.43298016  0.19006104  0.04376233    -0.04500
C508        C  0.40012940  0.20961935  0.04768685    -0.01600
C509        C  0.37473401  0.19374697  0.06005281     0.03400
C510        C  0.38002667  0.15708881  0.06772864    -0.04500
C511        C  0.41143848  0.13651584  0.06314707    -0.01600
C512        C  0.43776267  0.15278664  0.05122151     0.03400
C513        C  0.39146444  0.24615551  0.03904513     0.38000
C514        C  0.41692044  0.09873869  0.07101887     0.38000
C515        C  0.46886680  0.13028149  0.04608853     0.36400
C516        C  0.34291318  0.21545792  0.06504642     0.36400
N517        N  0.99611924  0.11470103  0.04769814    -0.34600
N518        N  0.31733465  0.23242015  0.06893355    -0.38400
N519        N  0.42140692  0.06874297  0.07744464    -0.37800
N520        N  0.38409135  0.27497249  0.03195872    -0.37800
C521        C  0.13227521  0.31832613  0.04774057    -0.04500
C522        C  0.13313589  0.31528689  0.06782141    -0.01600
C523        C  0.16621535  0.32090794  0.07856232     0.03400
C524        C  0.19608402  0.34043072  0.07053032    -0.04500
C525        C  0.19268306  0.35064614  0.05107244    -0.01600
C526        C  0.16289578  0.33662244  0.03945965     0.03400
C527        C  0.09941714  0.31054103  0.07775590     0.38000
C528        C  0.21941277  0.37621235  0.04302671     0.38000
C529        C  0.16535406  0.34031956  0.01907855     0.36400
C530        C  0.16938429  0.30564246  0.09778132     0.36400
N531        N  0.16889707  0.34314690  0.00287469    -0.38400
N532        N  0.17206534  0.29327628  0.11306513    -0.38400
N533        N  0.24066465  0.39687737  0.03678050    -0.37800
N534        N  0.07250188  0.30782794  0.08581284    -0.37800
C535        C  0.45653116  0.32301130  0.04984156    -0.04500
C536        C  0.43720077  0.35609948  0.04369343    -0.01600
C537        C  0.40606664  0.36844254  0.05339371     0.03400
C538        C  0.39303107  0.34735783  0.06890589    -0.04500
C539        C  0.41217377  0.31483614  0.07518026    -0.01600
C540        C  0.44436033  0.30366969  0.06642422     0.03400
C541        C  0.44953326  0.37812727  0.02764679     0.38000
C542        C  0.39802034  0.29209606  0.09062529     0.38000
C543        C  0.46378444  0.27127333  0.07462306     0.36400
C544        C  0.38740694  0.40294893  0.04748546     0.36400
N545        N  0.47907164  0.24551530  0.08133649    -0.38400
N546        N  0.37254308  0.43053815  0.04279533    -0.38400
N547        N  0.38649392  0.27384251  0.10278498    -0.37800
N548        N  0.45923080  0.39581596  0.01483512    -0.37800
C549        C  0.09704332  0.28971798  0.94726847    -0.04500
C550        C  0.12804960  0.31334395  0.94971919    -0.01600
C551        C  0.16018946  0.30398712  0.94021029     0.03400
C552        C  0.16108870  0.26967010  0.92981377    -0.04500
C553        C  0.12701918  0.26019603  0.92079930    -0.01600
C554        C  0.09524321  0.26589308  0.93091051     0.03400
C555        C  0.12672036  0.34628096  0.96173613     0.38000
C556        C  0.12476641  0.23998453  0.90299057     0.38000
C557        C  0.06294951  0.24292878  0.92598913     0.36400
C558        C  0.19099348  0.32986129  0.94012262     0.36400
N559        N  0.03759927  0.22389756  0.92253508    -0.38400
N560        N  0.21531372  0.35106889  0.93985034    -0.38400
N561        N  0.12147531  0.22412558  0.88868442    -0.37800
N562        N  0.12502226  0.37304897  0.97104108    -0.37800
C563        C  0.40465154  0.31084563  0.92391596    -0.04500
C564        C  0.43897674  0.29771708  0.91830665    -0.01600
C565        C  0.46874619  0.29581838  0.93157371     0.03400
C566        C  0.46299711  0.29762319  0.95120343    -0.04500
C567        C  0.42842034  0.31075636  0.95696886    -0.01600
C568        C  0.40052987  0.32007484  0.94320392     0.03400
C569        C  0.44426666  0.28661599  0.89878739     0.38000
C570        C  0.42065734  0.31401283  0.97693917     0.38000
C571        C  0.36725163  0.33828547  0.94889673     0.36400
C572        C  0.01217128  0.31307217  0.92759789     0.36400
N573        N  0.34060124  0.35275171  0.95329841    -0.38400
N574        N  0.03958535  0.32519099  0.92243127    -0.38400
N575        N  0.41382263  0.31667147  0.99278836    -0.37800
N576        N  0.44859413  0.27769531  0.88325293    -0.37800
C577        C  0.18456442  0.23685904  0.93783829    -0.04500
C578        C  0.16772864  0.20045171  0.93766777    -0.01600
C579        C  0.15001148  0.18836554  0.95418121     0.03400
C580        C  0.15725491  0.20862178  0.97113369    -0.04500
C581        C  0.19011735  0.23017283  0.97218311    -0.01600
C582        C  0.20487944  0.24342040  0.95508526     0.03400
C583        C  0.16830121  0.17691362  0.92097988     0.38000
C584        C  0.20586458  0.24166517  0.99049042     0.38000
C585        C  0.23770127  0.26649487  0.95552056     0.36400
C586        C  0.12511264  0.15634440  0.95372797     0.36400
N587        N  0.26396288  0.28506736  0.95650001    -0.38400
N588        N  0.10554143  0.13039121  0.95337554    -0.38400
N589        N  0.21814877  0.25086954  0.00517490    -0.37800
N590        N  0.16892720  0.15760724  0.90777939    -0.37800
C591        C  0.44648599  0.16946670  0.96463586    -0.04500
C592        C  0.40942288  0.18052336  0.96462925    -0.01600
C593        C  0.38540776  0.17435847  0.94863756     0.03400
C594        C  0.39790246  0.15694107  0.93184842    -0.04500
C595        C  0.43204305  0.13795765  0.93384948    -0.01600
C596        C  0.45654886  0.14478816  0.94983771     0.03400
C597        C  0.39533877  0.19800056  0.98147914     0.38000
C598        C  0.44065863  0.10906877  0.92018295     0.38000
C599        C  0.99594099  0.12862687  0.95136552     0.36400
C600        C  0.34741730  0.18340637  0.95110215     0.36400
N601        N  0.02492595  0.11583760  0.95075046    -0.38400
N602        N  0.31764158  0.18942367  0.95511602    -0.38400
N603        N  0.44703160  0.08589498  0.90927337    -0.37800
N604        N  0.38423729  0.21213018  0.99483414    -0.37800
C605        C  0.39856174  0.39016533  0.16328914    -0.04500
C606        C  0.39056509  0.41851768  0.17637089    -0.01600
C607        C  0.41394896  0.42482234  0.19232507     0.03400
C608        C  0.45044925  0.41038569  0.19310977    -0.04500
C609        C  0.46013865  0.38492047  0.17866059    -0.01600
C610        C  0.43330879  0.37252455  0.16483098     0.03400
C611        C  0.35831247  0.44203607  0.17333782     0.38000
C612        C  0.99009784  0.36433033  0.18191006     0.38000
C613        C  0.44165633  0.34184628  0.15215652     0.36400
C614        C  0.39853880  0.44483993  0.20805874     0.36400
N615        N  0.44842712  0.31736333  0.14206545    -0.38400
N616        N  0.38530512  0.46023310  0.22048607    -0.38400
N617        N  0.01789600  0.34873998  0.18253729    -0.37800
N618        N  0.33289470  0.46110129  0.17095793    -0.37800
C619        C  0.21328074  0.39374411  0.16479379    -0.04500
C620        C  0.18790333  0.37017586  0.17394406    -0.01600
C621        C  0.16422449  0.38540888  0.18744903     0.03400
C622        C  0.16589474  0.42461530  0.19207230    -0.04500
C623        C  0.19102260  0.44808936  0.18214549    -0.01600
C624        C  0.21434350  0.43265849  0.16879928     0.03400
C625        C  0.18634081  0.33015067  0.16944460     0.38000
C626        C  0.19382268  0.48856915  0.18517259     0.38000
C627        C  0.23931770  0.45729958  0.15873412     0.36400
C628        C  0.13862457  0.36027231  0.19660617     0.36400
N629        N  0.25890883  0.47705910  0.15065546    -0.38400
N630        N  0.11818581  0.33998593  0.20378361    -0.38400
N631        N  0.19774132  0.52076003  0.18761512    -0.37800
N632        N  0.18518446  0.29819979  0.16584937    -0.37800
C633        C  0.43425262  0.10001295  0.19419577    -0.04500
C634        C  0.40410815  0.12378498  0.19704091    -0.01600
C635        C  0.37787106  0.13076865  0.18205436     0.03400
C636        C  0.37972620  0.11125982  0.16459244    -0.04500
C637        C  0.41013760  0.08748342  0.16185280    -0.01600
C638        C  0.43840328  0.08411865  0.17609131     0.03400
C639        C  0.39948894  0.14007091  0.21562592     0.38000
C640        C  0.41117907  0.06439417  0.14490653     0.38000
C641        C  0.47106397  0.06267839  0.17240829     0.36400
C642        C  0.34853885  0.15737983  0.18478313     0.36400
N643        N  0.46494425  0.49432170  0.17634092    -0.38400
N644        N  0.32504336  0.17851644  0.18696462    -0.38400
N645        N  0.41161166  0.04574458  0.13146271    -0.37800
N646        N  0.39576053  0.15288829  0.23050102    -0.37800
C647        C  0.13749627  0.09880235  0.18793404    -0.04500
C648        C  0.15984905  0.13126685  0.18599605    -0.01600
C649        C  0.18420835  0.13392758  0.17094338     0.03400
C650        C  0.18765888  0.10331020  0.15829700    -0.04500
C651        C  0.16396649  0.07162712  0.15970832    -0.01600
C652        C  0.13836800  0.06986455  0.17420064     0.03400
C653        C  0.15979690  0.16059907  0.20031268     0.38000
C654        C  0.16743107  0.03984151  0.14696685     0.38000
C655        C  0.11445898  0.03700115  0.17576375     0.36400
C656        C  0.20642639  0.16783000  0.16870854     0.36400
N657        N  0.09546662  0.01076126  0.17706443    -0.38400
N658        N  0.22405938  0.19491549  0.16684251    -0.38400
N659        N  0.17033339  0.01448439  0.13682395    -0.37800
N660        N  0.15999557  0.18382231  0.21183717    -0.37800
C661        C  0.16285616  0.09002941  0.69003580    -0.04500
C662        C  0.20093349  0.09899457  0.69192061    -0.01600
C663        C  0.21638064  0.12777422  0.68044874     0.03400
C664        C  0.19400974  0.14893663  0.66757889    -0.04500
C665        C  0.15640467  0.14049157  0.66569895    -0.01600
C666        C  0.14156141  0.10959553  0.67565313     0.03400
C667        C  0.22540997  0.07639268  0.70402329     0.38000
C668        C  0.13375598  0.16149669  0.65183175     0.38000
C669        C  0.10600114  0.09588544  0.66879339     0.36400
C670        C  0.25563991  0.13458080  0.68118309     0.36400
N671        N  0.07838479  0.08580264  0.66187872    -0.38400
N672        N  0.28697039  0.13991454  0.68160406    -0.38400
N673        N  0.11663866  0.17797921  0.64034961    -0.37800
N674        N  0.24566862  0.05848501  0.71337601    -0.37800
C675        C  0.18112574  0.33653988  0.66042712    -0.04500
C676        C  0.19911825  0.36509395  0.67118219    -0.01600
C677        C  0.18083962  0.38323170  0.68583631     0.03400
C678        C  0.14434012  0.37258183  0.68984166    -0.04500
C679        C  0.12624232  0.34444986  0.67868236    -0.01600
C680        C  0.14438966  0.32695187  0.66387640     0.03400
C681        C  0.23675593  0.37510486  0.66739940     0.38000
C682        C  0.08949797  0.33199104  0.68302793     0.38000
C683        C  0.12571068  0.29806527  0.65243593     0.36400
C684        C  0.19984609  0.41291026  0.69653063     0.36400
N685        N  0.11112617  0.27503935  0.64320136    -0.38400
N686        N  0.21532339  0.43637668  0.70508810    -0.38400
N687        N  0.06035492  0.32167056  0.68653344    -0.37800
N688        N  0.26674312  0.38316765  0.66434884    -0.37800
C689        C  0.46468081  0.16422271  0.65961623    -0.04500
C690        C  0.43708428  0.14098551  0.66723205    -0.01600
C691        C  0.44582987  0.11571989  0.68236936     0.03400
C692        C  0.48187917  0.11479155  0.69035125    -0.04500
C693        C  0.50861877  0.14025171  0.68369396    -0.01600
C694        C  0.50051885  0.16364352  0.66786056     0.03400
C695        C  0.39990480  0.14267305  0.65918586     0.38000
C696        C  0.04497142  0.14286416  0.69381087     0.38000
C697        C  0.03066942  0.18930502  0.66103130     0.36400
C698        C  0.41820487  0.08972571  0.68912128     0.36400
N699        N  0.05247320  0.21076804  0.65607305    -0.38400
N700        N  0.39607188  0.06899076  0.69445091    -0.38400
N701        N  0.07275771  0.14513638  0.70226333    -0.37800
N702        N  0.37035303  0.14414290  0.65263748    -0.37800
C703        C  0.41473981  0.35435572  0.65862982    -0.04500
C704        C  0.43519400  0.38790840  0.65533395    -0.01600
C705        C  0.44448590  0.41259241  0.67039018     0.03400
C706        C  0.43778138  0.40171607  0.68928514    -0.04500
C707        C  0.41309267  0.37162977  0.69240883    -0.01600
C708        C  0.40051784  0.34868266  0.67696200     0.03400
C709        C  0.45015848  0.39584598  0.63701231     0.38000
C710        C  0.40278326  0.36283321  0.71162447     0.38000
C711        C  0.37577092  0.31720295  0.68029077     0.36400
C712        C  0.46305266  0.44826834  0.66650303     0.36400
N713        N  0.35613180  0.29202457  0.68306873    -0.38400
N714        N  0.47785528  0.47658542  0.66325149    -0.38400
N715        N  0.39460261  0.35608853  0.72701715    -0.37800
N716        N  0.46232102  0.40327284  0.62253979    -0.37800
C717        C  0.38601269  0.09977401  0.53774389    -0.04500
C718        C  0.41851593  0.11812582  0.53226546    -0.01600
C719        C  0.43703998  0.14399142  0.54494379     0.03400
C720        C  0.41972037  0.15653233  0.56148961    -0.04500
C721        C  0.38677364  0.13831676  0.56636145    -0.01600
C722        C  0.37395969  0.10669178  0.55611757     0.03400
C723        C  0.43347035  0.10951093  0.51409441     0.38000
C724        C  0.36657216  0.15095387  0.58246177     0.38000
C725        C  0.35856349  0.07584124  0.56679375     0.36400
C726        C  0.47433131  0.15549514  0.54154164     0.36400
N727        N  0.34981661  0.05055002  0.57617182    -0.38400
N728        N  0.50427152  0.16434068  0.53884425    -0.38400
N729        N  0.35087591  0.16172248  0.59528669    -0.37800
N730        N  0.44561472  0.10272739  0.49958731    -0.37800
C731        C  0.41596408  0.35516457  0.56234119    -0.04500
C732        C  0.43666085  0.38804949  0.56710697    -0.01600
C733        C  0.42725476  0.42309145  0.55851273     0.03400
C734        C  0.40340507  0.42353845  0.54229439    -0.04500
C735        C  0.39254200  0.38852928  0.53418623    -0.01600
C736        C  0.39389112  0.35547775  0.54542748     0.03400
C737        C  0.46888870  0.38493046  0.57965157     0.38000
C738        C  0.38369830  0.38562640  0.51406316     0.38000
C739        C  0.37168022  0.32291187  0.53978805     0.36400
C740        C  0.44308268  0.45809568  0.56577580     0.36400
N741        N  0.35385849  0.29701721  0.53522063    -0.38400
N742        N  0.45566116  0.48611763  0.57158304    -0.38400
N743        N  0.37789672  0.38306780  0.49785245    -0.37800
N744        N  0.49571088  0.38171253  0.58883829    -0.37800
C745        C  0.25187866  0.13959189  0.57551591    -0.04500
C746        C  0.23449959  0.13969512  0.55718883    -0.01600
C747        C  0.23643985  0.10753564  0.54550971     0.03400
C748        C  0.25566688  0.07499513  0.55219662    -0.04500
C749        C  0.26644822  0.07267236  0.57150296    -0.01600
C750        C  0.26803986  0.10553846  0.58261546     0.03400
C751        C  0.21389424  0.17251938  0.55047506     0.38000
C752        C  0.27260430  0.03576146  0.58019514     0.38000
C753        C  0.28559950  0.10372749  0.60149125     0.36400
C754        C  0.21675493  0.10746583  0.52718373     0.36400
N755        N  0.29951313  0.10195121  0.61655133    -0.38400
N756        N  0.20025910  0.10746159  0.51277733    -0.38400
N757        N  0.27666264  0.00629036  0.58726682    -0.37800
N758        N  0.19752691  0.19873947  0.54513952    -0.37800
C759        C  0.25918779  0.34050157  0.57046589    -0.04500
C760        C  0.24907800  0.34010635  0.55078001    -0.01600
C761        C  0.26089833  0.36950786  0.53842108     0.03400
C762        C  0.28266924  0.40008579  0.54553420    -0.04500
C763        C  0.29248093  0.40054572  0.56521497    -0.01600
C764        C  0.28085332  0.37122135  0.57749517     0.03400
C765        C  0.22575741  0.30991423  0.54321566     0.38000
C766        C  0.31620168  0.43022348  0.57297165     0.38000
C767        C  0.29118501  0.37284965  0.59760685     0.36400
C768        C  0.24974358  0.36870209  0.51840793     0.36400
N769        N  0.29836766  0.37423316  0.61375789    -0.38400
N770        N  0.24049131  0.36786715  0.50248600    -0.38400
N771        N  0.33530651  0.45322905  0.57967980    -0.37800
N772        N  0.20720461  0.28589783  0.53702761    -0.37800
C773        C  0.14553904  0.12144506  0.31157786    -0.04500
C774        C  0.12797256  0.12510680  0.32891287    -0.01600
C775        C  0.14115198  0.15122749  0.34255215     0.03400
C776        C  0.17248385  0.17338920  0.33902800    -0.04500
C777        C  0.19143219  0.16824124  0.32218250    -0.01600
C778        C  0.17806325  0.14204228  0.30847702     0.03400
C779        C  0.09665230  0.10139419  0.33285328     0.38000
C780        C  0.22405465  0.19059096  0.31882752     0.38000
C781        C  0.19697222  0.13721744  0.29095398     0.36400
C782        C  0.12160447  0.15645043  0.35989249     0.36400
N783        N  0.21208345  0.13313673  0.27698535    -0.38400
N784        N  0.10594849  0.16080224  0.37366968    -0.38400
N785        N  0.25006073  0.20852909  0.31619842    -0.37800
N786        N  0.07200011  0.08204875  0.33613110    -0.37800
C787        C  0.16212955  0.42056491  0.31024697    -0.04500
C788        C  0.18487961  0.38924035  0.30769884    -0.01600
C789        C  0.19393070  0.36505290  0.32317217     0.03400
C790        C  0.17780308  0.37041900  0.34094804    -0.04500
C791        C  0.15749694  0.40397396  0.34376470    -0.01600
C792        C  0.15123417  0.42978017  0.32855624     0.03400
C793        C  0.19832030  0.38158903  0.28899708     0.38000
C794        C  0.14127964  0.41131540  0.36182701     0.38000
C795        C  0.13281173  0.46542049  0.33149627     0.36400
C796        C  0.21908084  0.33405543  0.32060185     0.36400
N797        N  0.11857106  0.49414520  0.33372240    -0.38400
N798        N  0.23903560  0.30926960  0.31850307    -0.38400
N799        N  0.12850597  0.41764130  0.37623903    -0.37800
N800        N  0.20895965  0.37565049  0.27404895    -0.37800
C801        C  0.21753237  0.15797112  0.43358625    -0.04500
C802        C  0.20514072  0.12056277  0.42895577    -0.01600
C803        C  0.21995079  0.08843569  0.43878924     0.03400
C804        C  0.24166644  0.09308683  0.45562764    -0.04500
C805        C  0.24762267  0.13036979  0.46243130    -0.01600
C806        C  0.23885987  0.16227584  0.45079909     0.03400
C807        C  0.17632543  0.11491152  0.41443933     0.38000
C808        C  0.26140582  0.13631991  0.48177080     0.38000
C809        C  0.25254787  0.19909132  0.45684836     0.36400
C810        C  0.21220110  0.05063133  0.43174929     0.36400
N811        N  0.26303811  0.22823460  0.46229160    -0.38400
N812        N  0.20619908  0.02052783  0.42594100    -0.38400
N813        N  0.27104675  0.14152432  0.49740167    -0.37800
N814        N  0.15320043  0.11024539  0.40293818    -0.37800
C815        C  0.25803335  0.40442424  0.46133899    -0.04500
C816        C  0.27319357  0.36883927  0.45653695    -0.01600
C817        C  0.25301818  0.34326570  0.44505071     0.03400
C818        C  0.21664989  0.35134173  0.43915021    -0.04500
C819        C  0.20026768  0.38520114  0.44507507    -0.01600
C820        C  0.22090273  0.41169796  0.45617468     0.03400
C821        C  0.31029190  0.35818182  0.46238619     0.38000
C822        C  0.16286903  0.39362068  0.43885167     0.38000
C823        C  0.20361465  0.44575845  0.46273449     0.36400
C824        C  0.27120856  0.31031950  0.43758919     0.36400
N825        N  0.18979287  0.47276330  0.46818372    -0.38400
N826        N  0.28584142  0.28454702  0.43135444    -0.38400
N827        N  0.13309568  0.40053031  0.43379967    -0.37800
N828        N  0.33956102  0.34807007  0.46663191    -0.37800
C829        C  0.43224288  0.14401689  0.34483886    -0.04500
C830        C  0.41518279  0.14991065  0.32661728    -0.01600
C831        C  0.42518869  0.12775065  0.31107900     0.03400
C832        C  0.45036761  0.09799702  0.31390957    -0.04500
C833        C  0.46220729  0.08788575  0.33256325    -0.01600
C834        C  0.45459927  0.11177747  0.34791741     0.03400
C835        C  0.38888640  0.18022890  0.32370152     0.38000
C836        C  0.48284395  0.05333027  0.33580300     0.38000
C837        C  0.47205034  0.10463791  0.36643709     0.36400
C838        C  0.40996889  0.13582426  0.29213335     0.36400
N839        N  0.48628748  0.09875122  0.38114523    -0.38400
N840        N  0.39765622  0.14218341  0.27703509    -0.38400
N841        N  0.49892061  0.02547325  0.33830102    -0.37800
N842        N  0.36792910  0.20443909  0.32143204    -0.37800
C843        C  0.46552617  0.33623585  0.33868620    -0.04500
C844        C  0.50296700  0.34527857  0.33784002    -0.01600
C845        C  0.51525800  0.36862837  0.32310624     0.03400
C846        C  0.48991257  0.38539269  0.30980625    -0.04500
C847        C  0.45222721  0.37635518  0.31078437    -0.01600
C848        C  0.44017249  0.35140729  0.32505322     0.03400
C849        C  0.52897378  0.32991445  0.35203163     0.38000
C850        C  0.42611704  0.39058700  0.29640883     0.38000
C851        C  0.40173731  0.34098178  0.32565298     0.36400
C852        C  0.02967557  0.41878442  0.33345044     0.36400
N853        N  0.37108116  0.33260406  0.32610666    -0.38400
N854        N  0.05411450  0.43881135  0.33708082    -0.38400
N855        N  0.40539369  0.40176935  0.28484100    -0.37800
N856        N  0.02555803  0.35997838  0.37493315    -0.37800
C857        C  0.37815622  0.10570159  0.46786420    -0.04500
C858        C  0.40567154  0.09746132  0.45498045    -0.01600
C859        C  0.41934327  0.12663390  0.44313883     0.03400
C860        C  0.40203238  0.16259480  0.44209480    -0.04500
C861        C  0.37666209  0.17111444  0.45608391    -0.01600
C862        C  0.36897072  0.14421758  0.47024227     0.03400
C863        C  0.42035967  0.05957112  0.45393078     0.38000
C864        C  0.35718235  0.20674372  0.45580088     0.38000
C865        C  0.35484479  0.15704592  0.48802396     0.36400
C866        C  0.45097930  0.11956660  0.43194709     0.36400
N867        N  0.34521758  0.16793344  0.50244985    -0.38400
N868        N  0.47649607  0.11403469  0.42319274    -0.38400
N869        N  0.34212747  0.23546723  0.45571999    -0.37800
N870        N  0.43237048  0.02942097  0.45304512    -0.37800
C871        C  0.40458074  0.36050502  0.43036199    -0.04500
C872        C  0.42737112  0.37973096  0.44391139    -0.01600
C873        C  0.41462481  0.41243393  0.45312271     0.03400
C874        C  0.37995929  0.42815948  0.44783724    -0.04500
C875        C  0.35823798  0.41005826  0.43331338    -0.01600
C876        C  0.36982632  0.37586205  0.42526344     0.03400
C877        C  0.46451537  0.36683193  0.44786290     0.38000
C878        C  0.32322610  0.42565832  0.42678971     0.38000
C879        C  0.34615885  0.35682511  0.41115818     0.36400
C880        C  0.43791074  0.43040450  0.46767134     0.36400
N881        N  0.32750459  0.34184136  0.39979042    -0.38400
N882        N  0.45640043  0.44457609  0.47937585    -0.38400
N883        N  0.29537683  0.43797773  0.42140971    -0.37800
N884        N  0.49415629  0.35656554  0.45108226    -0.37800
N885        N  0.43900886  0.74258385  0.36163920    -0.35800
N886        N  0.42573830  0.69135056  0.39229946    -0.56300
N887        N  0.40863818  0.75703270  0.41615863    -0.35800
N888        N  0.42351820  0.80736289  0.38542248    -0.56300
C889        C  0.45250283  0.70985851  0.35505053     0.27800
C890        C  0.45396146  0.77118301  0.35163788     0.27800
C891        C  0.41539013  0.72892005  0.42908478     0.27800
C892        C  0.41099040  0.79072526  0.42539753     0.27800
C893        C  0.42272096  0.66709928  0.37747101     0.36400
C894        C  0.40817885  0.67503256  0.40680741     0.36400
C895        C  0.42616877  0.82478026  0.36836890     0.36400
C896        C  0.40887689  0.83288497  0.39708640     0.36400
C897        C  0.47669929  0.71779135  0.34082392    -0.21000
C898        C  0.47754674  0.75661456  0.33863560    -0.21000
C899        C  0.42351016  0.74515466  0.44668712    -0.21000
C900        C  0.41924349  0.78389596  0.44451616    -0.21000
C901        C  0.40290654  0.63522889  0.38246184    -0.22100
C902        C  0.39345453  0.64032854  0.40104366    -0.22100
C903        C  0.41332435  0.86152041  0.36915299    -0.22100
C904        C  0.40264843  0.86679563  0.38736513    -0.22100
C905        C  0.43959297  0.67331336  0.35996415    -0.17500
C906        C  0.44410337  0.80961629  0.35282999    -0.17500
C907        C  0.40445772  0.82693520  0.41679639    -0.17400
C908        C  0.40922362  0.68942313  0.42562938    -0.17400
H909        H  0.49124739  0.69764342  0.33247298     0.15500
H910        H  0.49295720  0.77226116  0.32830049     0.15500
H911        H  0.42960090  0.73044202  0.45999189     0.15500
H912        H  0.42182143  0.80441107  0.45582326     0.15500
H913        H  0.39627251  0.61084794  0.37370767     0.13700
H914        H  0.37813177  0.62041592  0.40946424     0.13700
H915        H  0.41292696  0.88277452  0.35795852     0.13700
H916        H  0.39263547  0.89312666  0.39284886     0.13700
H917        H  0.41696021  0.74498093  0.37045893     0.27000
H918        H  0.39823617  0.75309845  0.40230145     0.27000
N919        N  0.18688412  0.76222751  0.36059535    -0.35800
N920        N  0.19663559  0.70051576  0.38832232    -0.56300
N921        N  0.20269397  0.75426805  0.41783477    -0.35800
N922        N  0.19091969  0.81678053  0.39037745    -0.56300
C923        C  0.17368958  0.73203980  0.35078485     0.27800
C924        C  0.17357128  0.79364773  0.35170935     0.27800
C925        C  0.19708832  0.72170132  0.42778168     0.27800
C926        C  0.19375996  0.78375818  0.42885320     0.27800
C927        C  0.20099997  0.68254728  0.37176924     0.36400
C928        C  0.21252435  0.67872048  0.40213982     0.36400
C929        C  0.19742396  0.83914031  0.37517597     0.36400
C930        C  0.20472223  0.83538485  0.40571497     0.36400
C931        C  0.15163818  0.74434152  0.33545230    -0.21000
C932        C  0.15155801  0.78337074  0.33605021    -0.21000
C933        C  0.18301191  0.73073219  0.44519039    -0.21000
C934        C  0.18189745  0.76997128  0.44606200    -0.21000
C935        C  0.21996131  0.64915268  0.37487054    -0.22100
C936        C  0.22831180  0.64724859  0.39411392    -0.22100
C937        C  0.21551676  0.87202716  0.38078802    -0.22100
C938        C  0.22011780  0.86970953  0.40022662    -0.22100
C939        C  0.18397776  0.69414090  0.35446322    -0.17500
C940        C  0.18392852  0.83106771  0.35664087    -0.17500
C941        C  0.20196170  0.82225615  0.42459771    -0.17400
C942        C  0.20806411  0.68502811  0.42179752    -0.17400
H943        H  0.13779038  0.72707594  0.32468900     0.15500
H944        H  0.13755127  0.80204618  0.32591871     0.15500
H945        H  0.17608529  0.71119901  0.45645737     0.15500
H946        H  0.17415488  0.78651541  0.45812031     0.15500
H947        H  0.22672667  0.62831553  0.36439921     0.13700
H948        H  0.24290262  0.62444250  0.40137645     0.13700
H949        H  0.22389946  0.89539646  0.37185085     0.13700
H950        H  0.23309340  0.89098871  0.40924789     0.13700
H951        H  0.20735426  0.76154984  0.37135636     0.27000
H952        H  0.21718954  0.75678102  0.40542375     0.27000
O953        O  0.36918369  0.96751988  0.47508603    -0.79300
O954        O  0.33072834  0.58159688  0.52112293    -0.79300
O955        O  0.36458716  0.53911126  0.47644790    -0.79300
O956        O  0.36791051  0.98415134  0.54564777    -0.79300
O957        O  0.32603531  0.58332729  0.48301266    -0.79400
O958        O  0.38166388  0.97058407  0.51633719    -0.79300
O959        O  0.37360257  0.53931645  0.52131595    -0.79300
O960        O  0.33771664  0.98699768  0.44965592    -0.79300
C961        C  0.35998614  0.96317277  0.45724028     1.10400
C962        C  0.36359830  0.57241241  0.52520038     1.10300
C963        C  0.35664971  0.57393450  0.47679390     1.10400
C964        C  0.38519328  0.96328968  0.53429881     1.10300
O965        O  0.31645814  0.92243408  0.51903619    -0.79300
O966        O  0.25450052  0.54656140  0.48298566    -0.79400
O967        O  0.27550862  0.96960934  0.46781455    -0.79300
O968        O  0.30605841  0.53370140  0.54290663    -0.79300
O969        O  0.26133257  0.54082712  0.52173299    -0.79300
O970        O  0.30446828  0.92426660  0.48244622    -0.79300
O971        O  0.29665206  0.96762543  0.53574118    -0.79300
O972        O  0.29086994  0.54213319  0.45947833    -0.79300
Co973      Co  0.34010565  0.95232479  0.49847564     1.51500
Co974      Co  0.29383614  0.55883694  0.50207248     1.51700
Co975      Co  0.32248764  0.50233390  0.47326577     1.51600
Co976      Co  0.33563417  0.49944726  0.52650990     1.51500
O977        O  0.31169828  0.50329626  0.50070729    -1.41200
C978        C  0.29850651  0.93291537  0.53274971     1.10300
C979        C  0.26167636  0.55520731  0.46613634     1.10400
C980        C  0.27893272  0.93455874  0.47129248     1.10400
C981        C  0.27395947  0.54588051  0.53841530     1.10300
N982        N  0.43770932  0.75999450  0.63782779    -0.35800
N983        N  0.42073412  0.81521768  0.60903460    -0.56300
N984        N  0.42360873  0.75702593  0.57934691    -0.35800
N985        N  0.44578000  0.70221392  0.60807642    -0.56300
C986        C  0.44029248  0.79221929  0.64823019     0.27800
C987        C  0.45444657  0.73222730  0.64818137     0.27800
C988        C  0.42570732  0.78910109  0.56869801     0.27800
C989        C  0.43068934  0.72733176  0.56801144     0.27800
C990        C  0.41129046  0.83528583  0.62435993     0.36400
C991        C  0.40758285  0.83429239  0.59358317     0.36400
C992        C  0.45157358  0.68033385  0.62385977     0.36400
C993        C  0.44097627  0.67816359  0.59317250     0.36400
C994        C  0.45892973  0.78472607  0.66538038    -0.21000
C995        C  0.46692100  0.74683459  0.66557855    -0.21000
C996        C  0.43490399  0.77957979  0.55043205    -0.21000
C997        C  0.43612994  0.74063641  0.54975129    -0.21000
C998        C  0.39154959  0.86695529  0.61866698    -0.22100
C999        C  0.38943553  0.86646259  0.59915706    -0.22100
C1000       C  0.45232555  0.64246207  0.61877057    -0.22100
C1001       C  0.44544058  0.64108484  0.59946259    -0.22100
C1002       C  0.42427098  0.82757939  0.64314601    -0.17500
C1003       C  0.45697798  0.69366465  0.64283485    -0.17500
C1004       C  0.43185828  0.68880188  0.57393135    -0.17400
C1005       C  0.41620950  0.82604634  0.57463540    -0.17400
H1006       H  0.46549477  0.80422601  0.67682957     0.15500
H1007       H  0.48030093  0.73200824  0.67740101     0.15500
H1008       H  0.43888549  0.79850752  0.53850574     0.15500
H1009       H  0.44101125  0.72463649  0.53714418     0.15500
H1010       H  0.38109300  0.88886720  0.62760091     0.13700
H1011       H  0.37693424  0.88792353  0.59005384     0.13700
H1012       H  0.45701180  0.61816348  0.62801457     0.13700
H1013       H  0.44382556  0.61558996  0.59101002     0.13700
H1014       H  0.42182455  0.75588065  0.62542958     0.27000
H1015       H  0.41380113  0.75496083  0.59296763     0.27000
N1016       N  0.23855212  0.74378246  0.58753364    -0.35800
N1017       N  0.22156621  0.68518331  0.61586556    -0.56300
N1018       N  0.20941776  0.74208067  0.64294361    -0.35800
N1019       N  0.22693845  0.80146014  0.61572033    -0.56300
C1020       C  0.25208883  0.71212034  0.57975090     0.27800
C1021       C  0.25531950  0.77418342  0.57970184     0.27800
C1022       C  0.20869819  0.71119788  0.65446877     0.27800
C1023       C  0.21059939  0.77290025  0.65410697     0.27800
C1024       C  0.21857534  0.66608170  0.59939369     0.36400
C1025       C  0.20458438  0.66376177  0.62889544     0.36400
C1026       C  0.22763393  0.82271746  0.59965249     0.36400
C1027       C  0.20918271  0.82196465  0.62857090     0.36400
C1028       C  0.27779714  0.72240242  0.56664413    -0.21000
C1029       C  0.27984951  0.76164382  0.56662681    -0.21000
C1030       C  0.20990781  0.72258845  0.67328974    -0.21000
C1031       C  0.21127582  0.76160305  0.67306722    -0.21000
C1032       C  0.19933735  0.63243891  0.60190743    -0.22100
C1033       C  0.19144856  0.63044467  0.62072787    -0.22100
C1034       C  0.21067755  0.85714242  0.60238560    -0.22100
C1035       C  0.19882997  0.85659486  0.62071807    -0.22100
C1036       C  0.23951535  0.67471758  0.58352902    -0.17500
C1037       C  0.24675785  0.81266092  0.58334454    -0.17500
C1038       C  0.20351083  0.81012165  0.64749210    -0.17400
C1039       C  0.20168689  0.67384628  0.64815480    -0.17400
H1040       H  0.29305461  0.70365311  0.55785661     0.15500
H1041       H  0.29701369  0.77897057  0.55783090     0.15500
H1042       H  0.20798060  0.70488158  0.68584410     0.15500
H1043       H  0.21043055  0.77966599  0.68540029     0.15500
H1044       H  0.19354269  0.61053440  0.59150332     0.13700
H1045       H  0.17776084  0.60697282  0.62750972     0.13700
H1046       H  0.20757933  0.88032393  0.59228517     0.13700
H1047       H  0.18463081  0.87922589  0.62754656     0.13700
H1048       H  0.21616605  0.74463325  0.59623055     0.27000
H1049       H  0.20242712  0.74266602  0.62847310     0.27000
C1050       C  0.48179680  0.57646464  0.29927911     0.43300
N1051       N  0.00884144  0.57575650  0.27165647     0.02200
C1052       C  0.00890044  0.91188846  0.21855465    -0.05700
H1053       H  0.04557287  0.88628684  0.29020556     0.07700
C1054       C  0.15221558  0.97114653  0.28805897    -0.06000
Co1055     Co  0.48398733  0.00122693  0.25298260     0.74200
N1056       N  0.02650737  0.93481259  0.27391876    -0.25200
Co1057     Co  0.06302272  0.94016269  0.25225729     0.74100
C1058       C  0.14483282  0.93322154  0.29546868     0.43400
N1059       N  0.11682929  0.56376271  0.26998849     0.01800
N1060       N  0.10603326  0.94518099  0.27265964     0.01900
N1061       N  0.46133098  0.95683767  0.21816376    -0.46100
H1062       H  0.45351904  0.51827500  0.29554365     0.07700
N1063       N  0.99853496  0.95785813  0.27553146     0.02200
N1064       N  0.10119334  0.94803522  0.23109079     0.01900
C1065       C  0.14120839  0.93931284  0.20974237     0.43500
N1066       N  0.08874165  0.58710666  0.26930865    -0.24700
C1067       C  0.45329045  0.53939617  0.22007565    -0.05600
N1068       N  0.00374073  0.60077461  0.28523959    -0.45800
N1069       N  0.11057494  0.92453720  0.21747069    -0.46000
C1070       C  0.45859987  0.57333201  0.20874760     0.43300
N1071       N  0.99067327  0.95973374  0.23438025     0.02200
N1072       N  0.08336055  0.58394374  0.22761471    -0.24700
N1073       N  0.98873010  0.54478226  0.27362420    -0.25200
N1074       N  0.11221373  0.56153418  0.22876125     0.01800
H1075       H  0.06661637  0.62718550  0.20698634     0.07700
H1076       H  0.17523124  0.99015633  0.22139431     0.07800
N1077       N  0.01835350  0.93658853  0.23252750    -0.25200
N1078       N  0.12681069  0.97595236  0.27389406    -0.24800
N1079       N  0.00053852  0.57286778  0.22984873     0.02200
C1080       C  0.48654255  0.91359473  0.29369023     0.43600
C1081       C  0.09365175  0.61256627  0.28319121    -0.06100
N1082       N  0.12403617  0.97695171  0.23286102    -0.24800
H1083       H  0.17405145  0.99081674  0.29197028     0.07700
N1084       N  0.47068084  0.94494691  0.28595815    -0.46100
H1085       H  0.07513056  0.63524036  0.28630076     0.07700
C1086       C  0.12039693  0.59421348  0.20355259     0.43400
C1087       C  0.47231861  0.53987312  0.29079314    -0.05600
Co1088     Co  0.04521643  0.58109438  0.24935216     0.73800
N1089       N  0.14155128  0.57212118  0.28365648    -0.45800
C1090       C  0.47264676  0.92955457  0.20661609     0.43700
N1091       N  0.98840453  0.59479041  0.21543828    -0.45800
Co1092     Co  0.12050466  0.52132280  0.25002365     0.73900
C1093       C  0.15041840  0.97342064  0.22058096    -0.06100
C1094       C  0.02649455  0.90935745  0.28806551    -0.05700
N1095       N  0.97912661  0.54308914  0.23234132    -0.25200
N1096       N  0.11579258  0.91900585  0.28540383    -0.46000
H1097       H  0.02533755  0.88803508  0.21485026     0.07700
C1098       C  0.08604989  0.60594064  0.21189870    -0.06100
Cl1099     Cl  0.05451081  0.00932726  0.25319209    -0.49100
C1100       C  0.12856019  0.60250679  0.29260380     0.43500
H1101       H  0.43212900  0.51804241  0.21852964     0.07700
N1102       N  0.13458557  0.56661373  0.21472259    -0.45800
O1103       O  0.46459234  0.72153671  0.98335762    -0.79300
O1104       O  0.10925222  0.72192908  0.01860180    -0.79300
O1105       O  0.09416108  0.70496099  0.97984241    -0.79300
O1106       O  0.99490200  0.69358374  0.03337211    -0.79300
O1107       O  0.12862765  0.75536394  0.98881249    -0.79400
O1108       O  0.45404254  0.73197232  0.02108674    -0.79300
O1109       O  0.06743274  0.68699947  0.03100637    -0.79300
O1110       O  0.00850720  0.67848579  0.97924572    -0.79300
C1111       C  0.97510164  0.68814799  0.97781075     1.10400
C1112       C  0.10041659  0.69334754  0.02820904     1.10300
C1113       C  0.12493706  0.72449663  0.97946596     1.10400
C1114       C  0.46286189  0.70263264  0.03034678     1.10300
O1115       O  0.48266510  0.80500731  0.02176362    -0.79300
O1116       O  0.07071933  0.79817392  0.98058496    -0.79400
O1117       O  0.00601251  0.75237558  0.96381845    -0.79300
O1118       O  0.07975360  0.76551763  0.04386723    -0.79300
O1119       O  0.09842395  0.79869647  0.01905086    -0.79300
O1120       O  0.49229947  0.80090113  0.98272133    -0.79300
O1121       O  0.00269567  0.77035034  0.04612828    -0.79300
O1122       O  0.06096018  0.75029346  0.96217095    -0.79300
Co1123     Co  0.97882670  0.76418625  0.00325005     1.51500
Co1124     Co  0.08356664  0.75893042  0.00069402     1.51700
Co1125     Co  0.03991099  0.72302835  0.98319505     1.51600
Co1126     Co  0.03628414  0.73035182  0.03651209     1.51500
O1127       O  0.03249171  0.74864570  0.00877342    -1.41200
C1128       C  0.48328229  0.79569548  0.03930944     1.10300
C1129       C  0.07222422  0.78384908  0.96402141     1.10400
C1130       C  0.99081806  0.78429574  0.96665031     1.10400
C1131       C  0.10039642  0.79133089  0.03678292     1.10300
N1132       N  0.26406543  0.78440607  0.86537125    -0.35800
N1133       N  0.31838957  0.78615980  0.89671889    -0.56300
N1134       N  0.35940673  0.84220675  0.87649490    -0.35800
N1135       N  0.30224503  0.84569361  0.84700704    -0.56300
C1136       C  0.24928683  0.75968154  0.87766735     0.27800
C1137       C  0.23639649  0.79809187  0.85396467     0.27800
C1138       C  0.37714592  0.84471689  0.89368307     0.27800
C1139       C  0.37179181  0.87084603  0.86561008     0.27800
C1140       C  0.29801217  0.75646213  0.90263491     0.36400
C1141       C  0.34649637  0.79045272  0.90973635     0.36400
C1142       C  0.27386948  0.84119408  0.83434480     0.36400
C1143       C  0.32850683  0.86456362  0.83779303     0.36400
C1144       C  0.21183108  0.75688502  0.87389768    -0.21000
C1145       C  0.20359537  0.78147450  0.85901872    -0.21000
C1146       C  0.40061881  0.87592655  0.89373524    -0.21000
C1147       C  0.39775356  0.89196018  0.87583305    -0.21000
C1148       C  0.31119370  0.74448437  0.92029043    -0.22100
C1149       C  0.34270627  0.76450374  0.92444363    -0.22100
C1150       C  0.28151898  0.85869005  0.81722185    -0.22100
C1151       C  0.31658124  0.87273990  0.81926841    -0.22100
C1152       C  0.26938004  0.73844203  0.89164365    -0.17500
C1153       C  0.24037033  0.82350365  0.83848412    -0.17500
C1154       C  0.36231877  0.87625846  0.84620954    -0.17400
C1155       C  0.37528439  0.81768544  0.90864977    -0.17400
H1156       H  0.19249872  0.73927796  0.88125932     0.15500
H1157       H  0.17666837  0.78599948  0.85243076     0.15500
H1158       H  0.41890296  0.88535365  0.90527044     0.15500
H1159       H  0.41305547  0.91624424  0.87086001     0.15500
H1160       H  0.29895148  0.72351237  0.92922892     0.13700
H1161       H  0.36028835  0.76042004  0.93701796     0.13700
H1162       H  0.26396477  0.86074675  0.80450038     0.13700
H1163       H  0.33115301  0.88816138  0.80852932     0.13700
H1164       H  0.29195956  0.78804254  0.86366062     0.27000
H1165       H  0.34427037  0.81923725  0.87135379     0.27000
N1166       N  0.32347342  0.64368064  0.84423272    -0.35800
N1167       N  0.37544142  0.64153118  0.87733976    -0.56300
N1168       N  0.32120053  0.67471110  0.90028857    -0.35800
N1169       N  0.26073557  0.67682281  0.86274452    -0.56300
C1170       C  0.35509826  0.63686914  0.83545584     0.27800
C1171       C  0.29541120  0.63792318  0.83127972     0.27800
C1172       C  0.33823619  0.64774732  0.91087805     0.27800
C1173       C  0.28533774  0.67275557  0.90376139     0.27800
C1174       C  0.39937497  0.64624406  0.86339374     0.36400
C1175       C  0.39376111  0.64816190  0.89419282     0.36400
C1176       C  0.24501742  0.64839531  0.85278908     0.36400
C1177       C  0.24298948  0.67856541  0.87909579     0.36400
C1178       C  0.34670856  0.62732484  0.81660861    -0.21000
C1179       C  0.30930831  0.62866821  0.81393015    -0.21000
C1180       C  0.31261173  0.62635497  0.92039121    -0.21000
C1181       C  0.27861815  0.64197237  0.91553936    -0.21000
C1182       C  0.43346804  0.65605636  0.87137203    -0.22100
C1183       C  0.42978063  0.65799019  0.89084206    -0.22100
C1184       C  0.21607729  0.63275683  0.86239148    -0.22100
C1185       C  0.21601500  0.65089296  0.87967171    -0.22100
C1186       C  0.39137405  0.63899659  0.84378684    -0.17500
C1187       C  0.25776070  0.63593767  0.83543832    -0.17500
C1188       C  0.25940372  0.69680888  0.89474019    -0.17400
C1189       C  0.37663353  0.64495548  0.91204901    -0.17400
H1190       H  0.36536331  0.61931700  0.80582578     0.15500
H1191       H  0.29404130  0.62182172  0.80088228     0.15500
H1192       H  0.31796623  0.60264246  0.92993235     0.15500
H1193       H  0.25233763  0.63262750  0.92047785     0.15500
H1194       H  0.45829960  0.66158668  0.86389982     0.13700
H1195       H  0.45112189  0.66606979  0.90116016     0.13700
H1196       H  0.19920787  0.60869664  0.85810181     0.13700
H1197       H  0.19978596  0.64322510  0.89164936     0.13700
H1198       H  0.32084996  0.65011970  0.85848714     0.27000
H1199       H  0.33374748  0.69449622  0.89146445     0.27000
C1200       C  0.46665515  0.91735684  0.70583752     0.43300
N1201       N  0.48644596  0.95903015  0.72606914     0.02200
C1202       C  0.15310092  0.54256745  0.71710944    -0.05700
H1203       H  0.16999224  0.90484070  0.72916534     0.07700
C1204       C  0.09575993  0.91533567  0.79476787    -0.06000
Co1205     Co  0.05887509  0.98504847  0.71259210     0.74200
N1206       N  0.11982363  0.93661906  0.72715451    -0.25200
Co1207     Co  0.12620892  0.97856706  0.74761709     0.74100
C1208       C  0.12831568  0.89392826  0.79013132     0.43400
N1209       N  0.01219386  0.95780481  0.78095088     0.01800
N1210       N  0.11932589  0.93892301  0.76954935     0.01900
N1211       N  0.10740814  0.54137043  0.69467597    -0.46100
H1212       H  0.01743740  0.91542902  0.68980192     0.07700
N1213       N  0.09337918  0.93888966  0.71389399     0.02200
N1214       N  0.12865602  0.52436910  0.76508886     0.01900
C1215       C  0.15071460  0.56884508  0.78271193     0.43500
N1216       N  0.48624547  0.96362467  0.76864110    -0.24700
C1217       C  0.01871152  0.55595730  0.69517947    -0.05600
N1218       N  0.45658018  0.93978611  0.72029771    -0.45800
N1219       N  0.15745468  0.54700820  0.76760575    -0.46000
C1220       C  0.49427502  0.57866383  0.69958689     0.43300
N1221       N  0.10021581  0.51876699  0.70914419     0.02200
N1222       N  0.49962093  0.54386251  0.76494525    -0.24700
N1223       N  0.01282961  0.95090828  0.71405627    -0.25200
N1224       N  0.02386746  0.54108622  0.77838563     0.01800
H1225       H  0.44988344  0.57632634  0.76313266     0.07700
H1226       H  0.10223381  0.56529401  0.80245202     0.07800
N1227       N  0.12654327  0.51849586  0.72248090    -0.25200
N1228       N  0.09297346  0.94292800  0.78163106    -0.24800
N1229       N  0.49958053  0.53691441  0.72181624     0.02200
C1230       C  0.12907444  0.89628794  0.70375974     0.43600
C1231       C  0.45664610  0.94359030  0.77332054    -0.06100
N1232       N  0.10389152  0.52939825  0.77794102    -0.24800
H1233       H  0.07897730  0.91275579  0.80702950     0.07700
N1234       N  0.09803321  0.91554981  0.69962313    -0.46100
H1235       H  0.43024681  0.94423376  0.76577581     0.07700
C1236       C  0.49189745  0.58682249  0.78782740     0.43400
C1237       C  0.00208230  0.92413817  0.70182839    -0.05600
Co1238     Co  0.49162534  0.00221239  0.74651839     0.73800
N1239       N  0.00101828  0.93670043  0.79527199    -0.45800
C1240       C  0.14050337  0.55767613  0.69825815     0.43700
N1241       N  0.47992629  0.56684791  0.71612902    -0.45800
Co1242     Co  0.05993473  0.99072735  0.78112459     0.73900
C1243       C  0.11529165  0.55713328  0.78959977    -0.06100
C1244       C  0.14361886  0.91010573  0.72212721    -0.05700
N1245       N  0.02047314  0.53062469  0.70922036    -0.25200
N1246       N  0.14110658  0.91014822  0.77416691    -0.46000
H1247       H  0.17764286  0.54866449  0.72561220     0.07700
C1248       C  0.47677945  0.57166828  0.76970419    -0.06100
Cl1249     Cl  0.05935664  0.98896988  0.74674729    -0.49100
C1250       C  0.46634330  0.92736740  0.79193661     0.43500
H1251       H  0.03384342  0.55483588  0.68243719     0.07700
N1252       N  0.01995948  0.56387510  0.79298049    -0.45800
N1253       N  0.28588408  0.61058852  0.13906495    -0.35800
N1254       N  0.23013280  0.61230825  0.10801281    -0.56300
N1255       N  0.28706704  0.61879820  0.08012389    -0.35800
N1256       N  0.34339254  0.61489457  0.11151251    -0.56300
C1257       C  0.25546117  0.60314591  0.14891486     0.27800
C1258       C  0.31538325  0.60168210  0.15058246     0.27800
C1259       C  0.25722896  0.62775255  0.06879882     0.27800
C1260       C  0.31723607  0.62813812  0.07043637     0.27800
C1261       C  0.20740254  0.61004976  0.12269138     0.36400
C1262       C  0.20854650  0.61322471  0.09191654     0.36400
C1263       C  0.36481240  0.61430433  0.12770765     0.36400
C1264       C  0.36556894  0.62394698  0.09719117     0.36400
C1265       C  0.26580066  0.59011370  0.16698558    -0.21000
C1266       C  0.30346770  0.58898773  0.16799733    -0.21000
C1267       C  0.26871715  0.64116559  0.05145332    -0.21000
C1268       C  0.30622578  0.64012559  0.05222213    -0.21000
C1269       C  0.17128181  0.60899108  0.11582000    -0.22100
C1270       C  0.17208668  0.60928727  0.09644176    -0.22100
C1271       C  0.40078200  0.62247028  0.12363866    -0.22100
C1272       C  0.40122963  0.62900065  0.10443215    -0.22100
C1273       C  0.21845469  0.60749292  0.14221391    -0.17500
C1274       C  0.35285813  0.60565425  0.14616226    -0.17500
C1275       C  0.35422212  0.63033502  0.07786317    -0.17400
C1276       C  0.21991124  0.62553888  0.07378237    -0.17400
H1277       H  0.24800971  0.58167934  0.17822424     0.15500
H1278       H  0.32017772  0.57982004  0.18021700     0.15500
H1279       H  0.25205513  0.65152880  0.03948955     0.15500
H1280       H  0.32335871  0.64946957  0.04087577     0.15500
H1281       H  0.14662662  0.60808479  0.12381236     0.13700
H1282       H  0.14821806  0.60957381  0.08679766     0.13700
H1283       H  0.42420458  0.62427761  0.13353601     0.13700
H1284       H  0.42519318  0.63721944  0.09680253     0.13700
H1285       H  0.28640043  0.62409338  0.12591817     0.27000
H1286       H  0.28701642  0.60693430  0.09363773     0.27000
N1287       N  0.29827293  0.86233448  0.14795467    -0.35800
N1288       N  0.23970753  0.85393189  0.11976232    -0.56300
N1289       N  0.29380823  0.84395646  0.09034496    -0.35800
N1290       N  0.35226204  0.85026046  0.11955316    -0.56300
C1291       C  0.26918202  0.86336887  0.15919914     0.27800
C1292       C  0.32870169  0.85895456  0.15937440     0.27800
C1293       C  0.26277008  0.82960087  0.08173980     0.27800
C1294       C  0.32294769  0.83088698  0.08103144     0.27800
C1295       C  0.22146425  0.87148386  0.13346840     0.36400
C1296       C  0.21930542  0.85819123  0.10346984     0.36400
C1297       C  0.37464893  0.86181810  0.13416030     0.36400
C1298       C  0.37187877  0.85347854  0.10375668     0.36400
C1299       C  0.28119847  0.86025133  0.17810039    -0.21000
C1300       C  0.31884893  0.85746508  0.17821175    -0.21000
C1301       C  0.27249682  0.80712518  0.06667257    -0.21000
C1302       C  0.31032508  0.80871573  0.06597351    -0.21000
C1303       C  0.18921857  0.88683700  0.12590346    -0.22100
C1304       C  0.18794691  0.87859679  0.10683367    -0.22100
C1305       C  0.40875931  0.87184718  0.12766146    -0.22100
C1306       C  0.40698993  0.86658266  0.10839483    -0.22100
C1307       C  0.23308348  0.87253276  0.15283799    -0.17500
C1308       C  0.36497578  0.86333081  0.15335305    -0.17500
C1309       C  0.36042004  0.83921783  0.08578616    -0.17400
C1310       C  0.22619563  0.83905383  0.08642111    -0.17400
H1311       H  0.26473285  0.86165210  0.19051926     0.15500
H1312       H  0.33704113  0.85637768  0.19074288     0.15500
H1313       H  0.25425024  0.79183092  0.05689930     0.15500
H1314       H  0.32667944  0.79481550  0.05566368     0.15500
H1315       H  0.16867456  0.90209441  0.13335571     0.13700
H1316       H  0.16596941  0.88577393  0.09668372     0.13700
H1317       H  0.43253975  0.88174264  0.13593119     0.13700
H1318       H  0.42928028  0.87099282  0.09892169     0.13700
H1319       H  0.29790180  0.87009414  0.13370661     0.27000
H1320       H  0.29495711  0.86442789  0.10091842     0.27000
C1321       C  0.17946789  0.58643475  0.79508996    -0.04500
C1322       C  0.20984131  0.56508118  0.80196995    -0.01600
C1323       C  0.23461868  0.58066854  0.81566750     0.03400
C1324       C  0.23068070  0.61861014  0.82153508    -0.04500
C1325       C  0.20047560  0.64006987  0.81438366    -0.01600
C1326       C  0.17456878  0.62368960  0.80151970     0.03400
C1327       C  0.21513737  0.52663687  0.79547848     0.38000
C1328       C  0.19565495  0.67890168  0.82041450     0.38000
C1329       C  0.14273259  0.64518927  0.79486758     0.36400
C1330       C  0.26341372  0.55716732  0.82419851     0.36400
N1331       N  0.11721400  0.66213552  0.78962094    -0.38400
N1332       N  0.28646203  0.53850947  0.83095999    -0.38400
N1333       N  0.19146060  0.70970126  0.82536656    -0.37800
N1334       N  0.21961198  0.49607814  0.79023394    -0.37800
C1335       C  0.42239267  0.62935728  0.83127006    -0.04500
C1336       C  0.44064739  0.59443191  0.83396614    -0.01600
C1337       C  0.46423905  0.58109943  0.82014800     0.03400
C1338       C  0.46921350  0.60216010  0.80315021    -0.04500
C1339       C  0.45215280  0.63776498  0.80082207    -0.01600
C1340       C  0.42978400  0.65182866  0.81508026     0.03400
C1341       C  0.43397270  0.57122411  0.85063908     0.38000
C1342       C  0.45709127  0.65967113  0.78356631     0.38000
C1343       C  0.41297504  0.68876090  0.81274039     0.36400
C1344       C  0.48171252  0.54458634  0.82316796     0.36400
N1345       N  0.39941819  0.71815857  0.81086175    -0.38400
N1346       N  0.49560638  0.51549590  0.82566843    -0.38400
N1347       N  0.46084134  0.67698934  0.76972523    -0.37800
N1348       N  0.42886674  0.55277591  0.86396872    -0.37800
C1349       C  0.20716333  0.83657588  0.82731799    -0.04500
C1350       C  0.18737066  0.86735090  0.83417581    -0.01600
C1351       C  0.15958841  0.88446868  0.82267445     0.03400
C1352       C  0.15252861  0.87197349  0.80373099    -0.04500
C1353       C  0.17150887  0.84009014  0.79719418    -0.01600
C1354       C  0.19819575  0.82196782  0.80911095     0.03400
C1355       C  0.19726844  0.88290085  0.85276676     0.38000
C1356       C  0.16411049  0.82633965  0.77802796     0.38000
C1357       C  0.21782223  0.78952063  0.80233195     0.36400
C1358       C  0.14002265  0.91612810  0.83032171     0.36400
N1359       N  0.23353974  0.76367546  0.79690552    -0.38400
N1360       N  0.12449250  0.94113202  0.83674344    -0.38400
N1361       N  0.15833578  0.81550492  0.76270475    -0.37800
N1362       N  0.20549863  0.89537758  0.86750672    -0.37800
C1363       C  0.39081072  0.89103461  0.83358095    -0.04500
C1364       C  0.41593425  0.86524146  0.82629570    -0.01600
C1365       C  0.44046322  0.87730374  0.81257197     0.03400
C1366       C  0.44007282  0.91518619  0.80614424    -0.04500
C1367       C  0.41532418  0.94126440  0.81363575    -0.01600
C1368       C  0.39093751  0.92921208  0.82752929     0.03400
C1369       C  0.41600996  0.82601631  0.83271941     0.38000
C1370       C  0.41462330  0.98028624  0.80694743     0.38000
C1371       C  0.36594181  0.95584563  0.83558861     0.36400
C1372       C  0.46518228  0.85038169  0.80448931     0.36400
N1373       N  0.34613384  0.97711935  0.84211179    -0.38400
N1374       N  0.99312339  0.83062037  0.79956169    -0.38400
N1375       N  0.41372143  0.01134192  0.80151710    -0.37800
N1376       N  0.41600091  0.79482030  0.83794050    -0.37800
C1377       C  0.12939867  0.67284863  0.03946640    -0.04500
C1378       C  0.15156476  0.64517095  0.03142377    -0.01600
C1379       C  0.18037321  0.62822198  0.04261406     0.03400
C1380       C  0.19072574  0.64327581  0.06072109    -0.04500
C1381       C  0.17040371  0.67386539  0.06764421    -0.01600
C1382       C  0.13745243  0.68453594  0.05826436     0.03400
C1383       C  0.14375007  0.63325379  0.01202180     0.38000
C1384       C  0.18254577  0.69337218  0.08491388     0.38000
C1385       C  0.10985005  0.70309122  0.06895462     0.36400
C1386       C  0.19877422  0.59525192  0.03563009     0.36400
N1387       N  0.08715699  0.71550343  0.07799142    -0.38400
N1388       N  0.21347396  0.56891181  0.03002862    -0.38400
N1389       N  0.19256873  0.70851615  0.09871834    -0.37800
N1390       N  0.13745233  0.62399310  0.99647973    -0.37800
C1391       C  0.43393607  0.68215245  0.04116919    -0.04500
C1392       C  0.40251504  0.70222764  0.04684454    -0.01600
C1393       C  0.37898152  0.68605309  0.05999721     0.03400
C1394       C  0.38209728  0.64754714  0.06515230    -0.04500
C1395       C  0.41128165  0.62617998  0.05836688    -0.01600
C1396       C  0.43802642  0.64376418  0.04712963     0.03400
C1397       C  0.39294805  0.73918531  0.03897869     0.38000
C1398       C  0.41415867  0.58632657  0.06339350     0.38000
C1399       C  0.46910103  0.62182457  0.04147595     0.36400
C1400       C  0.35100895  0.70899883  0.06829779     0.36400
N1401       N  0.98675742  0.60374535  0.03574512    -0.34600
N1402       N  0.32837495  0.72632824  0.07517115    -0.38400
N1403       N  0.41638496  0.55457966  0.06752414    -0.37800
N1404       N  0.38458091  0.76819873  0.03242237    -0.37800
C1405       C  0.13039909  0.80952841  0.04938883    -0.04500
C1406       C  0.12984815  0.80537214  0.06942245    -0.01600
C1407       C  0.16223467  0.81023074  0.08087685     0.03400
C1408       C  0.19341692  0.82856331  0.07345913    -0.04500
C1409       C  0.19159188  0.83954605  0.05408113    -0.01600
C1410       C  0.16211853  0.82706486  0.04184286     0.03400
C1411       C  0.09541909  0.79957608  0.07860710     0.38000
C1412       C  0.21957182  0.86459354  0.04678935     0.38000
C1413       C  0.16602385  0.83133843  0.02155294     0.36400
C1414       C  0.16308860  0.79606345  0.10033348     0.36400
N1415       N  0.17046754  0.83450676  0.00543299    -0.38400
N1416       N  0.16373312  0.78476766  0.11584203    -0.38400
N1417       N  0.24185686  0.88483335  0.04117880    -0.37800
N1418       N  0.06793121  0.79598471  0.08607341    -0.37800
C1419       C  0.45465429  0.81054450  0.05244106    -0.04500
C1420       C  0.43217016  0.84205753  0.04722176    -0.01600
C1421       C  0.40043278  0.85037177  0.05744147     0.03400
C1422       C  0.39054631  0.82762589  0.07304825    -0.04500
C1423       C  0.41334519  0.79719034  0.07877201    -0.01600
C1424       C  0.44534023  0.78913652  0.06898083     0.03400
C1425       C  0.44185400  0.86674307  0.03160798     0.38000
C1426       C  0.40384413  0.77402015  0.09508653     0.38000
C1427       C  0.46760947  0.75774257  0.07610629     0.36400
C1428       C  0.37807976  0.88282151  0.05210091     0.36400
N1429       N  0.48500698  0.73261188  0.08194246    -0.38400
N1430       N  0.36014995  0.90868344  0.04786849    -0.38400
N1431       N  0.39636007  0.75569752  0.10811304    -0.37800
N1432       N  0.44951817  0.88662248  0.01918929    -0.37800
C1433       C  0.09281763  0.79963823  0.94789026    -0.04500
C1434       C  0.12352485  0.82351470  0.95136771    -0.01600
C1435       C  0.15495079  0.81813485  0.94050518     0.03400
C1436       C  0.15492678  0.78811518  0.92715828    -0.04500
C1437       C  0.12027993  0.78273451  0.91812305    -0.01600
C1438       C  0.09017955  0.78099026  0.92987169     0.03400
C1439       C  0.12307453  0.85208952  0.96596700     0.38000
C1440       C  0.11661546  0.77328241  0.89818526     0.38000
C1441       C  0.05988174  0.75585792  0.92440403     0.36400
C1442       C  0.18667105  0.84255514  0.94294299     0.36400
N1443       N  0.03618105  0.73506307  0.92037125    -0.38400
N1444       N  0.21187120  0.86245944  0.94487175    -0.38400
N1445       N  0.11277229  0.76602778  0.88221214    -0.37800
N1446       N  0.12225729  0.87545609  0.97738455    -0.37800
C1447       C  0.40590910  0.81712891  0.92366255    -0.04500
C1448       C  0.44249340  0.81081187  0.91864799    -0.01600
C1449       C  0.47077551  0.81018419  0.93281528     0.03400
C1450       C  0.46241135  0.80604883  0.95202106    -0.04500
C1451       C  0.42643949  0.81545509  0.95722984    -0.01600
C1452       C  0.39904803  0.82358200  0.94299090     0.03400
C1453       C  0.45169436  0.80573528  0.89897064     0.38000
C1454       C  0.41714348  0.81666932  0.97704146     0.38000
C1455       C  0.36373028  0.83799471  0.94812898     0.36400
C1456       C  0.00700333  0.82080912  0.92810767     0.36400
N1457       N  0.33554852  0.84974604  0.95203991    -0.38400
N1458       N  0.03243836  0.83793284  0.92362978    -0.38400
N1459       N  0.40924751  0.81793761  0.99278527    -0.37800
N1460       N  0.45925054  0.80180475  0.88329531    -0.37800
C1461       C  0.17579435  0.75189660  0.93288418    -0.04500
C1462       C  0.15658575  0.71681120  0.93117095    -0.01600
C1463       C  0.14275827  0.70017693  0.94779712     0.03400
C1464       C  0.15347261  0.71586026  0.96559771    -0.04500
C1465       C  0.18652071  0.73720276  0.96634609    -0.01600
C1466       C  0.19915386  0.75333902  0.94933694     0.03400
C1467       C  0.14827817  0.70038110  0.91271648     0.38000
C1468       C  0.20533532  0.74472309  0.98442917     0.38000
C1469       C  0.23389739  0.77306660  0.94887633     0.36400
C1470       C  0.11681709  0.66904870  0.94647836     0.36400
N1471       N  0.26188221  0.78863932  0.94862909    -0.38400
N1472       N  0.09631879  0.64393404  0.94527152    -0.38400
N1473       N  0.22021925  0.75071417  0.99894307    -0.37800
N1474       N  0.14115664  0.68679350  0.89809622    -0.37800
C1475       C  0.44766810  0.66997837  0.96207343    -0.04500
C1476       C  0.41018368  0.68024374  0.96169567    -0.01600
C1477       C  0.38554133  0.66800581  0.94693977     0.03400
C1478       C  0.39807233  0.64705736  0.93125274    -0.04500
C1479       C  0.43301601  0.63017723  0.93383269    -0.01600
C1480       C  0.45807367  0.64223041  0.94870030     0.03400
C1481       C  0.39600328  0.70348737  0.97668093     0.38000
C1482       C  0.44220141  0.59863090  0.92180969     0.38000
C1483       C  0.99300028  0.62291465  0.95181953     0.36400
C1484       C  0.34705534  0.67396186  0.94989369     0.36400
N1485       N  0.02176924  0.60960310  0.95122484    -0.38400
N1486       N  0.31706547  0.67794110  0.95415716    -0.38400
N1487       N  0.44897694  0.57339245  0.91218165    -0.37800
N1488       N  0.38468092  0.72228443  0.98845684    -0.37800
C1489       C  0.39285768  0.87891652  0.16722697    -0.04500
C1490       C  0.39380631  0.91823681  0.16993200    -0.01600
C1491       C  0.42026095  0.93443885  0.18242494     0.03400
C1492       C  0.44727338  0.91171083  0.19200514    -0.04500
C1493       C  0.44698573  0.87210316  0.18864611    -0.01600
C1494       C  0.41952959  0.85579375  0.17641606     0.03400
C1495       C  0.36767207  0.94232375  0.15943455     0.38000
C1496       C  0.98921878  0.86120185  0.18463233     0.38000
C1497       C  0.41840097  0.81522782  0.17334413     0.36400
C1498       C  0.41840270  0.97483084  0.18519743     0.36400
N1499       N  0.41742544  0.78282760  0.17092305    -0.38400
N1500       N  0.41409756  0.00698255  0.18673073    -0.38400
N1501       N  0.01739962  0.84638235  0.18485007    -0.37800
N1502       N  0.34715204  0.96153195  0.15098429    -0.37800
C1503       C  0.20813846  0.88923752  0.16679173    -0.04500
C1504       C  0.18121209  0.86710846  0.17555445    -0.01600
C1505       C  0.15891938  0.88325554  0.18932925     0.03400
C1506       C  0.16306774  0.92214966  0.19427662    -0.04500
C1507       C  0.18926409  0.94444567  0.18449243    -0.01600
C1508       C  0.21172148  0.92789005  0.17111681     0.03400
C1509       C  0.17678123  0.82752850  0.17046742     0.38000
C1510       C  0.19416534  0.98467002  0.18777583     0.38000
C1511       C  0.23886589  0.95090073  0.16165366     0.36400
C1512       C  0.13257035  0.85913886  0.19860413     0.36400
N1513       N  0.26039550  0.96939917  0.15419574    -0.38400
N1514       N  0.11165110  0.83964263  0.20593567    -0.38400
N1515       N  0.19964336  0.01660475  0.19034032    -0.37800
N1516       N  0.17317897  0.79598577  0.16635120    -0.37800
C1517       C  0.43550228  0.58408864  0.19142985    -0.04500
C1518       C  0.41776559  0.61953151  0.19008804    -0.01600
C1519       C  0.39176623  0.62706671  0.17500626     0.03400
C1520       C  0.38174570  0.59856535  0.16171775    -0.04500
C1521       C  0.39963942  0.56328063  0.16295206    -0.01600
C1522       C  0.42716564  0.55657583  0.17728134     0.03400
C1523       C  0.42469616  0.64748386  0.20479177     0.38000
C1524       C  0.38910783  0.53353090  0.14963571     0.38000
C1525       C  0.44794214  0.52177101  0.17694737     0.36400
C1526       C  0.37515963  0.66414074  0.17313397     0.36400
N1527       N  0.49714177  0.04572931  0.16935492    -0.38400
N1528       N  0.36206227  0.69380457  0.17148840    -0.38400
N1529       N  0.38040850  0.50982296  0.13906966    -0.37800
N1530       N  0.42998192  0.66963389  0.21664943    -0.37800
C1531       C  0.13649471  0.60368121  0.18512581    -0.04500
C1532       C  0.16001624  0.63539932  0.18379493    -0.01600
C1533       C  0.18594521  0.63722313  0.16942461     0.03400
C1534       C  0.18910132  0.60678351  0.15660786    -0.04500
C1535       C  0.16447990  0.57573391  0.15758152    -0.01600
C1536       C  0.13734397  0.57507065  0.17126836     0.03400
C1537       C  0.15887586  0.66510916  0.19787499     0.38000
C1538       C  0.16867056  0.54320111  0.14537623     0.38000
C1539       C  0.11136630  0.54376169  0.17178694     0.36400
C1540       C  0.21062447  0.66955682  0.16842252     0.36400
N1541       N  0.09048271  0.51893893  0.17213327    -0.38400
N1542       N  0.23051590  0.69519929  0.16772301    -0.38400
N1543       N  0.17222011  0.51724066  0.13569538    -0.37800
N1544       N  0.15794409  0.68881432  0.20911233    -0.37800
C1545       C  0.15743076  0.58675618  0.68521032    -0.04500
C1546       C  0.19494483  0.59801080  0.68729479    -0.01600
C1547       C  0.20943340  0.62644516  0.67528660     0.03400
C1548       C  0.18656823  0.64518784  0.66166116    -0.04500
C1549       C  0.14947632  0.63451535  0.65959753    -0.01600
C1550       C  0.13583041  0.60370993  0.67008673     0.03400
C1551       C  0.21995089  0.57880428  0.70058453     0.38000
C1552       C  0.12574077  0.65406734  0.64565755     0.38000
C1553       C  0.10091905  0.58788374  0.66344865     0.36400
C1554       C  0.24814203  0.63619468  0.67671686     0.36400
N1555       N  0.07372598  0.57582830  0.65690327    -0.38400
N1556       N  0.27895708  0.64415887  0.67783284    -0.38400
N1557       N  0.10743508  0.66941678  0.63424894    -0.37800
N1558       N  0.24082504  0.56389747  0.71091210    -0.37800
C1559       C  0.18400860  0.83537177  0.66055057    -0.04500
C1560       C  0.20239820  0.86554529  0.66997311    -0.01600
C1561       C  0.18479705  0.88564667  0.68424551     0.03400
C1562       C  0.14864264  0.87553606  0.68905281    -0.04500
C1563       C  0.12976026  0.84662659  0.67883711    -0.01600
C1564       C  0.14738125  0.82659978  0.66470443     0.03400
C1565       C  0.23936393  0.87575864  0.66496562     0.38000
C1566       C  0.09229287  0.83678710  0.68315062     0.38000
C1567       C  0.12801336  0.79633567  0.65455689     0.36400
C1568       C  0.20353194  0.91744926  0.69338716     0.36400
N1569       N  0.11291942  0.77202462  0.64645783    -0.38400
N1570       N  0.21859593  0.94284666  0.70060802    -0.38400
N1571       N  0.06239683  0.82904141  0.68655286    -0.37800
N1572       N  0.26872035  0.88408350  0.66081892    -0.37800
C1573       C  0.46594779  0.66528678  0.65831315    -0.04500
C1574       C  0.43819589  0.64130467  0.66527405    -0.01600
C1575       C  0.44680329  0.61378873  0.67945092     0.03400
C1576       C  0.48286104  0.61130462  0.68735323    -0.04500
C1577       C  0.50998359  0.63699768  0.68125392    -0.01600
C1578       C  0.50189153  0.66296272  0.66639171     0.03400
C1579       C  0.40091688  0.64453982  0.65751829     0.38000
C1580       C  0.04369720  0.63935042  0.69132685     0.38000
C1581       C  0.02844141  0.68993154  0.66032315     0.36400
C1582       C  0.41906580  0.58679870  0.68510111     0.36400
N1583       N  0.05102421  0.71022886  0.65511286    -0.38400
N1584       N  0.39691488  0.56513466  0.68947635    -0.38400
N1585       N  0.07261855  0.63896697  0.69869151    -0.37800
N1586       N  0.37126339  0.64724490  0.65122795    -0.37800
C1587       C  0.42419076  0.85837293  0.65794030    -0.04500
C1588       C  0.44460660  0.89228407  0.65556067    -0.01600
C1589       C  0.45116344  0.91674307  0.67102568     0.03400
C1590       C  0.44244460  0.90482867  0.68951423    -0.04500
C1591       C  0.41778007  0.87434791  0.69154241    -0.01600
C1592       C  0.40735320  0.85208077  0.67552685     0.03400
C1593       C  0.46174991  0.90109213  0.63787697     0.38000
C1594       C  0.40498258  0.86470002  0.71019538     0.38000
C1595       C  0.38118945  0.82130984  0.67735763     0.36400
C1596       C  0.46886128  0.95331075  0.66814171     0.36400
N1597       N  0.36015440  0.79682758  0.67872574    -0.38400
N1598       N  0.48291306  0.98245125  0.66589772    -0.38400
N1599       N  0.39472027  0.85720170  0.72512353    -0.37800
N1600       N  0.47589026  0.90939529  0.62403441    -0.37800
C1601       C  0.38637702  0.59823334  0.53784210    -0.04500
C1602       C  0.41795542  0.61789451  0.53206152    -0.01600
C1603       C  0.43498895  0.64566195  0.54424611     0.03400
C1604       C  0.41695563  0.65831028  0.56056424    -0.04500
C1605       C  0.38472651  0.63897374  0.56558898    -0.01600
C1606       C  0.37360740  0.60596946  0.55596795     0.03400
C1607       C  0.43362153  0.60857711  0.51415679     0.38000
C1608       C  0.36343948  0.65243276  0.58108857     0.38000
C1609       C  0.35939118  0.57511096  0.56708559     0.36400
C1610       C  0.47127868  0.65971656  0.54038339     0.36400
N1611       N  0.35162812  0.54971477  0.57664086    -0.38400
N1612       N  0.50030355  0.67093454  0.53725939    -0.38400
N1613       N  0.34704903  0.66451581  0.59335785    -0.37800
N1614       N  0.44638757  0.60114671  0.49988808    -0.37800
C1615       C  0.41607830  0.85895625  0.56093110    -0.04500
C1616       C  0.43691153  0.89185962  0.56568274    -0.01600
C1617       C  0.42705325  0.92712220  0.55745153     0.03400
C1618       C  0.40318834  0.92786453  0.54124623    -0.04500
C1619       C  0.39226102  0.89301846  0.53306011    -0.01600
C1620       C  0.39335722  0.85984447  0.54421062     0.03400
C1621       C  0.46899959  0.88876568  0.57833452     0.38000
C1622       C  0.38404752  0.89052272  0.51288337     0.38000
C1623       C  0.36985054  0.82815561  0.53874155     0.36400
C1624       C  0.44209778  0.96203075  0.56524027     0.36400
N1625       N  0.35097929  0.80302176  0.53421366    -0.38400
N1626       N  0.45397068  0.98992930  0.57156366    -0.38400
N1627       N  0.37916918  0.88888571  0.49658635    -0.37800
N1628       N  0.49558882  0.88538080  0.58768050    -0.37800
C1629       C  0.24899872  0.64195002  0.57129041    -0.04500
C1630       C  0.23314442  0.63884154  0.55270674    -0.01600
C1631       C  0.23600938  0.60464705  0.54260003     0.03400
C1632       C  0.25629342  0.57396854  0.55072078    -0.04500
C1633       C  0.26680397  0.57526483  0.57006508    -0.01600
C1634       C  0.26612861  0.60970533  0.57987712     0.03400
C1635       C  0.21333372  0.67050818  0.54407337     0.38000
C1636       C  0.27391008  0.54013580  0.58032280     0.38000
C1637       C  0.28172977  0.61125002  0.59917274     0.36400
C1638       C  0.21544035  0.60020025  0.52465895     0.36400
N1639       N  0.29403104  0.61228901  0.61458777    -0.38400
N1640       N  0.19829282  0.59648039  0.51057838    -0.38400
N1641       N  0.27874319  0.51212508  0.58868631    -0.37800
N1642       N  0.19782043  0.69581891  0.53706245    -0.37800
C1643       C  0.25942222  0.84394213  0.57024969    -0.04500
C1644       C  0.24696038  0.84564283  0.55094401    -0.01600
C1645       C  0.25892524  0.87516202  0.53882347     0.03400
C1646       C  0.28272153  0.90404416  0.54590978    -0.04500
C1647       C  0.29451168  0.90283713  0.56533732    -0.01600
C1648       C  0.28312489  0.87298282  0.57735265     0.03400
C1649       C  0.22101717  0.81749494  0.54361932     0.38000
C1650       C  0.31967386  0.93135778  0.57301170     0.38000
C1651       C  0.29581916  0.87217512  0.59718169     0.36400
C1652       C  0.24601075  0.87619673  0.51907485     0.36400
N1653       N  0.30508729  0.87151611  0.61311057    -0.38400
N1654       N  0.23542964  0.87684672  0.50335109    -0.38400
N1655       N  0.33981360  0.95353136  0.57964564    -0.37800
N1656       N  0.20031346  0.79501812  0.53778170    -0.37800
C1657       C  0.14563878  0.62031614  0.30976417    -0.04500
C1658       C  0.12475035  0.62505200  0.32599065    -0.01600
C1659       C  0.13837735  0.64734780  0.34118821     0.03400
C1660       C  0.17300768  0.66500698  0.34019782    -0.04500
C1661       C  0.19519485  0.65788697  0.32471813    -0.01600
C1662       C  0.18167144  0.63514839  0.30955929     0.03400
C1663       C  0.08928276  0.60672024  0.32709855     0.38000
C1664       C  0.23132047  0.67513608  0.32416319     0.38000
C1665       C  0.20416986  0.62857335  0.29342379     0.36400
C1666       C  0.11611232  0.65357266  0.35748689     0.36400
N1667       N  0.22227530  0.62323427  0.28060913    -0.38400
N1668       N  0.09835076  0.65860721  0.37046606    -0.38400
N1669       N  0.26011729  0.68900343  0.32381983    -0.37800
N1670       N  0.06106303  0.59187293  0.32790935    -0.37800
C1671       C  0.16250195  0.91326579  0.31188539    -0.04500
C1672       C  0.18586637  0.88254325  0.30890327    -0.01600
C1673       C  0.19627945  0.85837471  0.32420276     0.03400
C1674       C  0.17984167  0.86212809  0.34197069    -0.04500
C1675       C  0.15816224  0.89450565  0.34514137    -0.01600
C1676       C  0.15175013  0.92123640  0.33037403     0.03400
C1677       C  0.19890000  0.87570794  0.29005100     0.38000
C1678       C  0.14090213  0.89964165  0.36313052     0.38000
C1679       C  0.13439903  0.95708120  0.33407761     0.36400
C1680       C  0.22381653  0.82964591  0.32168112     0.36400
N1681       N  0.12139829  0.98618687  0.33693985    -0.38400
N1682       N  0.24608501  0.80699754  0.31978065    -0.38400
N1683       N  0.12717271  0.90388549  0.37749044    -0.37800
N1684       N  0.20920232  0.87028563  0.27498233    -0.37800
C1685       C  0.21517733  0.65236334  0.43576317    -0.04500
C1686       C  0.20136991  0.61524340  0.43172101    -0.01600
C1687       C  0.21732191  0.58300707  0.44089396     0.03400
C1688       C  0.24205498  0.58773159  0.45658859    -0.04500
C1689       C  0.24828366  0.62479532  0.46353657    -0.01600
C1690       C  0.23823764  0.65670932  0.45233238     0.03400
C1691       C  0.17049185  0.61022469  0.41832159     0.38000
C1692       C  0.26260588  0.63044632  0.48279914     0.38000
C1693       C  0.25219044  0.69349526  0.45821861     0.36400
C1694       C  0.20754755  0.54521995  0.43448982     0.36400
N1695       N  0.26287457  0.72259728  0.46360782    -0.38400
N1696       N  0.19970127  0.51515093  0.42919355    -0.38400
N1697       N  0.27245375  0.63536432  0.49842246    -0.37800
N1698       N  0.14565814  0.60628449  0.40774750    -0.37800
C1699       C  0.25614514  0.90406738  0.46156157    -0.04500
C1700       C  0.27210459  0.86801414  0.45809710    -0.01600
C1701       C  0.25317823  0.84079389  0.44694618     0.03400
C1702       C  0.21724258  0.84751736  0.43998877    -0.04500
C1703       C  0.19995892  0.88180170  0.44453697    -0.01600
C1704       C  0.21939553  0.91013535  0.45512284     0.03400
C1705       C  0.30897655  0.85836550  0.46477692     0.38000
C1706       C  0.16277818  0.88854530  0.43741193     0.38000
C1707       C  0.20132974  0.94518605  0.45953174     0.36400
C1708       C  0.27232761  0.80741897  0.44069097     0.36400
N1709       N  0.18681075  0.97310026  0.46313211    -0.38400
N1710       N  0.28741072  0.78136061  0.43507171    -0.38400
N1711       N  0.13312513  0.89382820  0.43162778    -0.37800
N1712       N  0.33809152  0.84850930  0.46948681    -0.37800
C1713       C  0.44306727  0.64214626  0.34559809    -0.04500
C1714       C  0.42756819  0.64725167  0.32697073    -0.01600
C1715       C  0.43943247  0.62507678  0.31182811     0.03400
C1716       C  0.46430484  0.59530124  0.31540965    -0.04500
C1717       C  0.47438164  0.58569057  0.33442468    -0.01600
C1718       C  0.46539386  0.61009821  0.34940168     0.03400
C1719       C  0.39997215  0.67603792  0.32335572     0.38000
C1720       C  0.49428166  0.55098646  0.33854209     0.38000
C1721       C  0.48078073  0.60313647  0.36839424     0.36400
C1722       C  0.42613820  0.63294258  0.29250360     0.36400
N1723       N  0.49332645  0.59716344  0.38347821    -0.38400
N1724       N  0.41558718  0.63911172  0.27705977    -0.38400
N1725       N  0.50984461  0.52309811  0.34186218    -0.37800
N1726       N  0.37776677  0.69885056  0.32057524    -0.37800
C1727       C  0.45472540  0.83627563  0.33746738    -0.04500
C1728       C  0.48554813  0.86009163  0.34041419    -0.01600
C1729       C  0.49415458  0.88737672  0.32658606     0.03400
C1730       C  0.47292064  0.89008064  0.30943243    -0.04500
C1731       C  0.44184638  0.86647813  0.30653811    -0.01600
C1732       C  0.43268518  0.83963837  0.32059335     0.03400
C1733       C  0.50866690  0.85603741  0.35758865     0.38000
C1734       C  0.41983846  0.86921776  0.28896708     0.38000
C1735       C  0.40081744  0.81523561  0.31772248     0.36400
C1736       C  0.03131552  0.91761029  0.33555421     0.36400
N1737       N  0.37547695  0.79561008  0.31551530    -0.38400
N1738       N  0.05497426  0.93854565  0.33922964    -0.38400
N1739       N  0.40219011  0.87140514  0.27496347    -0.37800
N1740       N  0.03112983  0.85649069  0.37640103    -0.37800
C1741       C  0.37942327  0.60450308  0.46776657    -0.04500
C1742       C  0.40751059  0.59701685  0.45506341    -0.01600
C1743       C  0.42080835  0.62657709  0.44328824     0.03400
C1744       C  0.40238552  0.66194401  0.44189021    -0.04500
C1745       C  0.37633413  0.66967286  0.45566123    -0.01600
C1746       C  0.36906620  0.64273115  0.46987561     0.03400
C1747       C  0.42319301  0.55953907  0.45413153     0.38000
C1748       C  0.35581037  0.70457797  0.45521408     0.38000
C1749       C  0.35440416  0.65548191  0.48753512     0.36400
C1750       C  0.45338627  0.62061657  0.43264674     0.36400
N1751       N  0.34442665  0.66655849  0.50185046    -0.38400
N1752       N  0.47965207  0.61608180  0.42433301    -0.38400
N1753       N  0.34004863  0.73285607  0.45512896    -0.37800
N1754       N  0.43599139  0.52972558  0.45332024    -0.37800
C1755       C  0.39303797  0.86056588  0.42834553    -0.04500
C1756       C  0.41846555  0.88042010  0.44038257    -0.01600
C1757       C  0.40797905  0.91380739  0.44983650     0.03400
C1758       C  0.37283869  0.92970182  0.44618453    -0.04500
C1759       C  0.34861796  0.91150585  0.43275741    -0.01600
C1760       C  0.35780035  0.87625167  0.42487350     0.03400
C1761       C  0.45595465  0.86738552  0.44247971     0.38000
C1762       C  0.31408993  0.92884410  0.42674494     0.38000
C1763       C  0.33118362  0.85666613  0.41248945     0.36400
C1764       C  0.43424024  0.93283088  0.46256782     0.36400
N1765       N  0.31002780  0.84128762  0.40250654    -0.38400
N1766       N  0.45524934  0.94798458  0.47272199    -0.38400
N1767       N  0.28684809  0.94292348  0.42167411    -0.37800
N1768       N  0.48586899  0.85693292  0.44417443    -0.37800
N1769       N  0.93636065  0.25049664  0.36167490    -0.35800
N1770       N  0.92322247  0.19677557  0.39190229    -0.56300
N1771       N  0.91199212  0.26025764  0.41758701    -0.35800
N1772       N  0.92781302  0.31329705  0.38765247    -0.56300
C1773       C  0.94865219  0.21792993  0.35430527     0.27800
C1774       C  0.95143184  0.27932419  0.35185990     0.27800
C1775       C  0.91638800  0.23050456  0.42983505     0.27800
C1776       C  0.91631452  0.29280332  0.42768026     0.27800
C1777       C  0.91933032  0.17400289  0.37652786     0.36400
C1778       C  0.90587861  0.17931862  0.40620181     0.36400
C1779       C  0.92982335  0.33265897  0.37105839     0.36400
C1780       C  0.91705245  0.33849907  0.40062105     0.36400
C1781       C  0.97201445  0.22622275  0.33974181    -0.21000
C1782       C  0.97355590  0.26504958  0.33811205    -0.21000
C1783       C  0.92518941  0.24447740  0.44785678    -0.21000
C1784       C  0.92367640  0.28360126  0.44663394    -0.21000
C1785       C  0.89924444  0.14196385  0.38095236    -0.22100
C1786       C  0.89025586  0.14553801  0.39968976    -0.22100
C1787       C  0.92089412  0.37030422  0.37351884    -0.22100
C1788       C  0.91325300  0.37414015  0.39226692    -0.22100
C1789       C  0.93591775  0.18123890  0.35903131    -0.17500
C1790       C  0.94403509  0.31806545  0.35432497    -0.17500
C1791       C  0.91181799  0.33017931  0.42007434    -0.17400
C1792       C  0.90764583  0.19182104  0.42540281    -0.17400
H1793       H  0.98578620  0.20635453  0.33088628     0.15500
H1794       H  0.98891028  0.28094789  0.32784624     0.15500
H1795       H  0.92992257  0.22815518  0.46080916     0.15500
H1796       H  0.92735572  0.30278965  0.45845798     0.15500
H1797       H  0.89203444  0.11849195  0.37168817     0.13700
H1798       H  0.87473988  0.12512160  0.40771151     0.13700
H1799       H  0.92105409  0.39293485  0.36303305     0.13700
H1800       H  0.90627147  0.40044735  0.39897073     0.13700
H1801       H  0.91539581  0.25288285  0.37117364     0.27000
H1802       H  0.90152308  0.25848864  0.40363518     0.27000
N1803       N  0.68175467  0.27006785  0.36135461    -0.35800
N1804       N  0.69388299  0.20738387  0.38875989    -0.56300
N1805       N  0.69895030  0.25961578  0.41852075    -0.35800
N1806       N  0.68412709  0.32366777  0.39150032    -0.56300
C1807       C  0.66918879  0.23988226  0.35131629     0.27800
C1808       C  0.66856038  0.30153356  0.35244822     0.27800
C1809       C  0.69493611  0.22654858  0.42833789     0.27800
C1810       C  0.68896627  0.28834896  0.42972960     0.27800
C1811       C  0.69816084  0.19050920  0.37191982     0.36400
C1812       C  0.71106328  0.18550641  0.40216809     0.36400
C1813       C  0.68991123  0.34711653  0.37656361     0.36400
C1814       C  0.69732433  0.34186711  0.40712602     0.36400
C1815       C  0.64763567  0.25225377  0.33580626    -0.21000
C1816       C  0.64743534  0.29131262  0.33646566    -0.21000
C1817       C  0.68091581  0.23450821  0.44588726    -0.21000
C1818       C  0.67816397  0.27360032  0.44695977    -0.21000
C1819       C  0.71840174  0.15774240  0.37443073    -0.22100
C1820       C  0.72766674  0.15518938  0.39358162    -0.22100
C1821       C  0.70646632  0.38047864  0.38268468    -0.22100
C1822       C  0.71118047  0.37719899  0.40210332    -0.22100
C1823       C  0.67962186  0.20195803  0.35496024    -0.17500
C1824       C  0.67828461  0.33899966  0.35767287    -0.17500
C1825       C  0.69618478  0.32718332  0.42585664    -0.17400
C1826       C  0.70680388  0.19043225  0.42196287    -0.17400
H1827       H  0.63441623  0.23502878  0.32482675     0.15500
H1828       H  0.63389460  0.31004656  0.32619923     0.15500
H1829       H  0.67495189  0.21444529  0.45708594     0.15500
H1830       H  0.67012878  0.28948223  0.45918399     0.15500
H1831       H  0.72533085  0.13766642  0.36362732     0.13700
H1832       H  0.74314590  0.13254030  0.40045748     0.13700
H1833       H  0.71420974  0.40458545  0.37407461     0.13700
H1834       H  0.72345246  0.39842921  0.41141238     0.13700
H1835       H  0.70173486  0.26941959  0.37234995     0.27000
H1836       H  0.71312492  0.26326259  0.40606728     0.27000
O1837       O  0.86643028  0.46699522  0.47868043    -0.79300
O1838       O  0.82837659  0.08496736  0.52152896    -0.79300
O1839       O  0.85828556  0.04043200  0.47568180    -0.79300
O1840       O  0.86656487  0.48451665  0.54884388    -0.79300
O1841       O  0.82147658  0.08568065  0.48320469    -0.79400
O1842       O  0.87826394  0.46976709  0.51945895    -0.79300
O1843       O  0.87087993  0.04251106  0.52086110    -0.79300
O1844       O  0.83453075  0.48478349  0.45308085    -0.79300
C1845       C  0.85793165  0.46218636  0.46082480     1.10400
C1846       C  0.86136152  0.07558192  0.52509312     1.10300
C1847       C  0.85107179  0.07551275  0.47612737     1.10400
C1848       C  0.88246161  0.46269330  0.53737371     1.10300
O1849       O  0.81216650  0.42170403  0.52213831    -0.79300
O1850       O  0.74969377  0.05106700  0.48434119    -0.79400
O1851       O  0.77197682  0.46887036  0.47146381    -0.79300
O1852       O  0.80499525  0.03684566  0.54374636    -0.79300
O1853       O  0.75873070  0.04584080  0.52349252    -0.79300
O1854       O  0.80154957  0.42311118  0.48534961    -0.79300
O1855       O  0.79547780  0.46700868  0.53977265    -0.79300
O1856       O  0.78411128  0.04330637  0.46020499    -0.79300
Co1857     Co  0.83681308  0.45125920  0.50168453     1.51500
Co1858     Co  0.79034107  0.06233604  0.50300928     1.51700
Co1859     Co  0.81581343  0.00354627  0.47390440     1.51600
Co1860     Co  0.83342108  0.00258689  0.52696547     1.51500
O1861       O  0.80733965  0.00608822  0.50167080    -1.41200
C1862       C  0.79581257  0.43227209  0.53640807     1.10300
C1863       C  0.75620260  0.05844683  0.46719891     1.10400
C1864       C  0.77564448  0.43382443  0.47453897     1.10400
C1865       C  0.77267552  0.04928507  0.54008613     1.10300
N1866       N  0.93472339  0.25696053  0.63898511    -0.35800
N1867       N  0.91692329  0.31217668  0.61098348    -0.56300
N1868       N  0.92485041  0.25621174  0.58064037    -0.35800
N1869       N  0.94789203  0.20124312  0.60856555    -0.56300
C1870       C  0.93555365  0.28881591  0.64970040     0.27800
C1871       C  0.95365596  0.23018842  0.64891305     0.27800
C1872       C  0.92745486  0.28905879  0.57068257     0.27800
C1873       C  0.93354892  0.22755650  0.56900471     0.27800
C1874       C  0.90439698  0.33037250  0.62621234     0.36400
C1875       C  0.90463384  0.33156756  0.59550580     0.36400
C1876       C  0.95336829  0.17903624  0.62423341     0.36400
C1877       C  0.94358903  0.17752782  0.59349554     0.36400
C1878       C  0.95541543  0.28214690  0.66655663    -0.21000
C1879       C  0.96571126  0.24498763  0.66636120    -0.21000
C1880       C  0.93864009  0.28116091  0.55255448    -0.21000
C1881       C  0.94080305  0.24231226  0.55122621    -0.21000
C1882       C  0.88323602  0.36092823  0.62038211    -0.22100
C1883       C  0.88383757  0.36201439  0.60089436    -0.22100
C1884       C  0.95458647  0.14129637  0.61892869    -0.22100
C1885       C  0.94812094  0.14033028  0.59956426    -0.22100
C1886       C  0.91707139  0.32300663  0.64504696    -0.17500
C1887       C  0.95794914  0.19207112  0.64328200    -0.17500
C1888       C  0.93448621  0.18873594  0.57434535    -0.17400
C1889       C  0.91605820  0.32511899  0.57690764    -0.17400
H1890       H  0.96133273  0.30161398  0.67809262     0.15500
H1891       H  0.98019465  0.23085675  0.67804466     0.15500
H1892       H  0.94304146  0.30111272  0.54109149     0.15500
H1893       H  0.94744226  0.22739568  0.53854979     0.15500
H1894       H  0.87085993  0.38168849  0.62929793     0.13700
H1895       H  0.87151145  0.38346407  0.59173293     0.13700
H1896       H  0.95910723  0.11682864  0.62807845     0.13700
H1897       H  0.94668917  0.11506897  0.59093264     0.13700
H1898       H  0.91857435  0.25204615  0.62672943     0.27000
H1899       H  0.91348708  0.25288162  0.59385701     0.27000
N1900       N  0.74103694  0.24173578  0.59298610    -0.35800
N1901       N  0.73144577  0.18339971  0.62290613    -0.56300
N1902       N  0.71813488  0.24164549  0.64893742    -0.35800
N1903       N  0.72853792  0.30014226  0.62027968    -0.56300
C1904       C  0.75509845  0.21021589  0.58530249     0.27800
C1905       C  0.75538815  0.27246619  0.58411163     0.27800
C1906       C  0.72053916  0.21181110  0.66107533     0.27800
C1907       C  0.71854962  0.27322935  0.65948256     0.27800
C1908       C  0.72686264  0.16342112  0.60678218     0.36400
C1909       C  0.71601302  0.16245849  0.63663480     0.36400
C1910       C  0.72684495  0.32053676  0.60392314     0.36400
C1911       C  0.71042170  0.32003015  0.63320089     0.36400
C1912       C  0.77862848  0.22087007  0.57119714    -0.21000
C1913       C  0.77894880  0.26017420  0.57051021    -0.21000
C1914       C  0.72338803  0.22460247  0.67963958    -0.21000
C1915       C  0.72232162  0.26355647  0.67863446    -0.21000
C1916       C  0.70853649  0.12958332  0.61027643    -0.22100
C1917       C  0.70257208  0.12851160  0.62931944    -0.22100
C1918       C  0.70807722  0.35395691  0.60654428    -0.22100
C1919       C  0.69737391  0.35348492  0.62510521    -0.22100
C1920       C  0.74443675  0.17245367  0.58988472    -0.17500
C1921       C  0.74566374  0.31087588  0.58746121    -0.17500
C1922       C  0.70721751  0.30886973  0.65240619    -0.17400
C1923       C  0.71368014  0.17407633  0.65564993    -0.17400
H1924       H  0.79361163  0.20226883  0.56220692     0.15500
H1925       H  0.79427568  0.27765628  0.56089467     0.15500
H1926       H  0.72385242  0.20772272  0.69255778     0.15500
H1927       H  0.72158276  0.28248464  0.69064035     0.15500
H1928       H  0.70151933  0.10726668  0.60027823     0.13700
H1929       H  0.68949004  0.10549860  0.63678610     0.13700
H1930       H  0.70309355  0.37644486  0.59622302     0.13700
H1931       H  0.68239828  0.37553015  0.63195069     0.13700
H1932       H  0.71968113  0.24189166  0.60233050     0.27000
H1933       H  0.70896619  0.24058212  0.63478013     0.27000
C1934       C  0.97938374  0.08163328  0.29956787     0.43300
N1935       N  0.50192703  0.07227058  0.27387692     0.02200
C1936       C  0.51555730  0.41460469  0.21446449    -0.05700
H1937       H  0.55313412  0.38064726  0.28298307     0.07700
C1938       C  0.65480477  0.47680183  0.28651306    -0.06000
Co1939     Co  0.98891261  0.50230203  0.25319892     0.74200
N1940       N  0.53380976  0.43260509  0.27027252    -0.25200
Co1941     Co  0.56962014  0.44222727  0.24878658     0.74100
C1942       C  0.64805101  0.43862822  0.29391619     0.43400
N1943       N  0.61054911  0.06050800  0.27548943     0.01800
N1944       N  0.61221837  0.44836175  0.26948532     0.01900
N1945       N  0.96278964  0.45405107  0.22055725    -0.46100
H1946       H  0.94811890  0.02505570  0.29603716     0.07700
N1947       N  0.50558897  0.45455226  0.27317959     0.02200
N1948       N  0.60728435  0.45365321  0.22779855     0.01900
C1949       C  0.64768110  0.44795379  0.20629315     0.43500
N1950       N  0.58219166  0.08348970  0.27449514    -0.24700
C1951       C  0.95229873  0.04267750  0.22119856    -0.05600
N1952       N  0.49424413  0.09640816  0.28746817    -0.45800
N1953       N  0.61766499  0.43150503  0.21385673    -0.46000
C1954       C  0.95901717  0.07668187  0.21014254     0.43300
N1955       N  0.49583998  0.45913704  0.23204759     0.02200
N1956       N  0.58226118  0.08474832  0.23258577    -0.24700
N1957       N  0.48153052  0.04118089  0.27441078    -0.25200
N1958       N  0.61125417  0.06260508  0.23426664     0.01800
H1959       H  0.56639033  0.12722026  0.21137895     0.07700
H1960       H  0.67890564  0.50039662  0.21838951     0.07800
N1961       N  0.52457699  0.43795366  0.22914066    -0.25200
N1962       N  0.63135166  0.48017808  0.27133049    -0.24800
N1963       N  0.49899653  0.07434843  0.23206483     0.02200
C1964       C  0.99437020  0.42067000  0.29638089     0.43600
C1965       C  0.58532094  0.10800215  0.28887275    -0.06100
N1966       N  0.62889101  0.48342362  0.23001716    -0.24800
H1967       H  0.67427700  0.49808290  0.29153636     0.07700
N1968       N  0.97830215  0.45095724  0.28783014    -0.46100
H1969       H  0.56678892  0.13097299  0.29145389     0.07700
C1970       C  0.62126812  0.09548482  0.20928433     0.43400
C1971       C  0.96836250  0.04525491  0.29137217    -0.05600
Co1972     Co  0.54132182  0.07984468  0.25302402     0.73800
N1973       N  0.63406855  0.06865962  0.28976010    -0.45800
C1974       C  0.97123644  0.42432268  0.20983412     0.43700
N1975       N  0.48786617  0.09920083  0.21871921    -0.45800
Co1976     Co  0.61685427  0.02024197  0.25455243     0.73900
C1977       C  0.65524615  0.48203463  0.21753801    -0.06100
C1978       C  0.53437757  0.40419243  0.28288170    -0.05700
N1979       N  0.47649221  0.04502473  0.23322982    -0.25200
N1980       N  0.62118677  0.42298735  0.28279326    -0.46000
H1981       H  0.53272880  0.39208391  0.20976492     0.07700
C1982       C  0.58606207  0.10680541  0.21694990    -0.06100
Cl1983     Cl  0.55792103  0.51077931  0.25103077    -0.49100
C1984       C  0.61945491  0.09794726  0.29897070     0.43500
H1985       H  0.92996955  0.02255024  0.21975480     0.07700
N1986       N  0.63470974  0.06795857  0.22073385    -0.45800
O1987       O  0.96588024  0.22161914  0.98620333    -0.79300
O1988       O  0.60957347  0.22666090  0.01965950    -0.79300
O1989       O  0.59386405  0.20360322  0.98196523    -0.79300
O1990       O  0.49564870  0.20011738  0.03505521    -0.79300
O1991       O  0.62850425  0.25529956  0.98889430    -0.79400
O1992       O  0.95573728  0.23809220  0.02372209    -0.79300
O1993       O  0.56737277  0.19257192  0.03199378    -0.79300
O1994       O  0.50681127  0.17782900  0.98059670    -0.79300
C1995       C  0.47385140  0.18879760  0.97837418     1.10400
C1996       C  0.60045976  0.19858627  0.02956167     1.10300
C1997       C  0.62494945  0.22267686  0.98119147     1.10400
C1998       C  0.96389929  0.21027250  0.03433729     1.10300
O1999       O  0.98692456  0.31038867  0.02119717    -0.79300
O2000       O  0.57125297  0.29579641  0.97798951    -0.79400
O2001       O  0.50596639  0.25034033  0.96357143    -0.79300
O2002       O  0.58104390  0.27301778  0.04275889    -0.79300
O2003       O  0.59760144  0.30353093  0.01675630    -0.79300
O2004       O  0.99697708  0.29942248  0.98304074    -0.79300
O2005       O  0.50430606  0.27824364  0.04514029    -0.79300
O2006       O  0.56073596  0.24459560  0.96211401    -0.79300
Co2007     Co  0.47886846  0.26663388  0.00255990     1.51500
Co2008     Co  0.58350196  0.26055925  0.00013341     1.51700
Co2009     Co  0.53914618  0.22201761  0.98394826     1.51600
Co2010     Co  0.53713162  0.23695518  0.03665343     1.51500
O2011       O  0.53238968  0.25139945  0.00842724    -1.41200
C2012       C  0.98689172  0.30448030  0.03903077     1.10300
C2013       C  0.57271383  0.27798310  0.96226737     1.10400
C2014       C  0.49086123  0.28260124  0.96558459     1.10400
C2015       C  0.60085325  0.29837708  0.03465538     1.10300
N2016       N  0.76371567  0.28647360  0.86779410    -0.35800
N2017       N  0.82039174  0.28841212  0.89885479    -0.56300
N2018       N  0.86509965  0.33566507  0.87594662    -0.35800
N2019       N  0.80570410  0.34154791  0.84774556    -0.56300
C2020       C  0.74865366  0.26768955  0.88226730     0.27800
C2021       C  0.73652010  0.30609631  0.85863585     0.27800
C2022       C  0.88412002  0.33893361  0.89278220     0.27800
C2023       C  0.87847947  0.36206961  0.86403929     0.27800
C2024       C  0.79828537  0.26110628  0.90573717     0.36400
C2025       C  0.85006314  0.29033104  0.91101447     0.36400
C2026       C  0.77574645  0.33861373  0.83598521     0.36400
C2027       C  0.83270045  0.35559139  0.83721101     0.36400
C2028       C  0.71170041  0.27529832  0.88259004    -0.21000
C2029       C  0.70380154  0.29956640  0.86749874    -0.21000
C2030       C  0.90967851  0.36811581  0.89151731    -0.21000
C2031       C  0.90646628  0.38234675  0.87324943    -0.21000
C2032       C  0.81216349  0.24843271  0.92308300    -0.22100
C2033       C  0.84561609  0.26548507  0.92614391    -0.22100
C2034       C  0.78337636  0.35154682  0.81793511    -0.22100
C2035       C  0.81983352  0.36162597  0.81859653    -0.22100
C2036       C  0.76824544  0.24462398  0.89537257    -0.17500
C2037       C  0.74082570  0.32837359  0.84211360    -0.17500
C2038       C  0.86754344  0.36651951  0.84470534    -0.17400
C2039       C  0.88087858  0.31448207  0.90873998    -0.17400
H2040       H  0.69280555  0.26475504  0.89279395     0.15500
H2041       H  0.67717718  0.31110443  0.86354303     0.15500
H2042       H  0.92922010  0.37756986  0.90248804     0.15500
H2043       H  0.92281119  0.40500926  0.86739448     0.15500
H2044       H  0.79927562  0.22834994  0.93225783     0.13700
H2045       H  0.86427188  0.25994944  0.93815754     0.13700
H2046       H  0.76455584  0.35372136  0.80568780     0.13700
H2047       H  0.83467393  0.37351603  0.80692276     0.13700
H2048       H  0.79060901  0.28314104  0.86372527     0.27000
H2049       H  0.84762590  0.31359833  0.87179990     0.27000
N2050       N  0.82688554  0.13940671  0.84706369    -0.35800
N2051       N  0.87688295  0.14179106  0.88058263    -0.56300
N2052       N  0.82265873  0.17993014  0.90243841    -0.35800
N2053       N  0.76713911  0.16428871  0.86854907    -0.56300
C2054       C  0.85781111  0.12450432  0.84043381     0.27800
C2055       C  0.79833787  0.12649738  0.83586998     0.27800
C2056       C  0.83915017  0.15348175  0.91366177     0.27800
C2057       C  0.78661543  0.17843444  0.90562150     0.27800
C2058       C  0.90126933  0.14420039  0.86670044     0.36400
C2059       C  0.89478920  0.15119776  0.89718766     0.36400
C2060       C  0.74735126  0.15658095  0.85262471     0.36400
C2061       C  0.74597853  0.18508865  0.87960143     0.36400
C2062       C  0.84905903  0.10249753  0.82461060    -0.21000
C2063       C  0.81155901  0.10354976  0.82181708    -0.21000
C2064       C  0.81297476  0.13285530  0.92317493    -0.21000
C2065       C  0.77927170  0.14845952  0.91776010    -0.21000
C2066       C  0.93501624  0.15584928  0.87439222    -0.22100
C2067       C  0.93080992  0.16082900  0.89368432    -0.22100
C2068       C  0.71232452  0.17122581  0.85378104    -0.22100
C2069       C  0.71174143  0.19011253  0.87087487    -0.22100
C2070       C  0.89387408  0.13201503  0.84775011    -0.17500
C2071       C  0.76079380  0.13574593  0.83748911    -0.17500
C2072       C  0.76071076  0.20207243  0.89619140    -0.17400
C2073       C  0.87750318  0.14967987  0.91502775    -0.17400
H2074       H  0.86773865  0.08713527  0.81600073     0.15500
H2075       H  0.79586988  0.08933678  0.81056035     0.15500
H2076       H  0.81776923  0.10950131  0.93301115     0.15500
H2077       H  0.75271212  0.13961479  0.92253596     0.15500
H2078       H  0.96008101  0.15990893  0.86691550     0.13700
H2079       H  0.95187402  0.17032032  0.90384842     0.13700
H2080       H  0.68991173  0.16928621  0.84327755     0.13700
H2081       H  0.68872057  0.20500688  0.87625818     0.13700
H2082       H  0.82636195  0.15981250  0.85762055     0.27000
H2083       H  0.83558406  0.19912228  0.89344325     0.27000
C2084       C  0.96008133  0.41393439  0.70636459     0.43300
N2085       N  0.98213567  0.45780801  0.72469496     0.02200
C2086       C  0.65686179  0.04651712  0.72359265    -0.05700
H2087       H  0.66816343  0.40156933  0.73311420     0.07700
C2088       C  0.59883172  0.42337435  0.79809374    -0.06000
Co2089     Co  0.55895146  0.48192507  0.71269605     0.74200
N2090       N  0.61922655  0.43480662  0.72930290    -0.25200
Co2091     Co  0.62601192  0.47901865  0.74830875     0.74100
C2092       C  0.63038892  0.40057745  0.79336035     0.43400
N2093       N  0.51341360  0.46080344  0.78158618     0.01800
N2094       N  0.61979616  0.44218689  0.77131332     0.01900
N2095       N  0.61293293  0.04575583  0.70016372    -0.46100
H2096       H  0.51795392  0.41253936  0.68990194     0.07700
N2097       N  0.59318913  0.43581854  0.71579483     0.02200
N2098       N  0.62947590  0.02628587  0.76997796     0.01900
C2099       C  0.64832097  0.07381046  0.78663343     0.43500
N2100       N  0.98522729  0.46334221  0.76692444    -0.24700
C2101       C  0.52373462  0.05813159  0.69826535    -0.05600
N2102       N  0.95195649  0.43761902  0.72064309    -0.45800
N2103       N  0.65655889  0.05115790  0.77209555    -0.46000
C2104       C  0.99522503  0.08225727  0.70177595     0.43300
N2105       N  0.60496553  0.02232454  0.71414294     0.02200
N2106       N  0.00095209  0.04300819  0.76677211    -0.24700
N2107       N  0.51303340  0.44771221  0.71426938    -0.25200
N2108       N  0.52456816  0.04155787  0.78068692     0.01800
H2109       H  0.95203738  0.07680393  0.76607794     0.07700
H2110       H  0.59906945  0.06878959  0.80590284     0.07800
N2111       N  0.63032081  0.02174173  0.72796244    -0.25200
N2112       N  0.59426947  0.44813910  0.78363928    -0.24800
N2113       N  0.00053492  0.03980863  0.72346079     0.02200
C2114       C  0.62743460  0.39007161  0.70797763     0.43600
C2115       C  0.95630939  0.44266056  0.77193421    -0.06100
N2116       N  0.60399148  0.03058637  0.78244723    -0.24800
H2117       H  0.58455109  0.42405197  0.81125294     0.07700
N2118       N  0.59720029  0.40973234  0.70273371    -0.46100
H2119       H  0.92965603  0.44251231  0.76463889     0.07700
C2120       C  0.99413126  0.08288697  0.79113941     0.43400
C2121       C  0.50233567  0.42125416  0.70183100    -0.05600
Co2122     Co  0.98926014  0.50158572  0.74458323     0.73800
N2123       N  0.50390994  0.43938062  0.79613013    -0.45800
C2124       C  0.64551449  0.06220790  0.70476494     0.43700
N2125       N  0.98094027  0.07003001  0.71822986    -0.45800
Co2126     Co  0.55997571  0.49502300  0.78105036     0.73900
C2127       C  0.61336134  0.06002071  0.79353553    -0.06100
C2128       C  0.64201381  0.40644292  0.72575884    -0.05700
N2129       N  0.52517425  0.03282045  0.71230591    -0.25200
N2130       N  0.64218096  0.41440535  0.77669401    -0.46000
H2131       H  0.68049860  0.05277307  0.73275336     0.07700
C2132       C  0.97878921  0.07066252  0.77247225    -0.06100
Cl2133     Cl  0.55919569  0.48904417  0.74675352    -0.49100
C2134       C  0.96737487  0.42623417  0.79031320     0.43500
H2135       H  0.53928989  0.05696566  0.68566842     0.07700
N2136       N  0.52193681  0.06676499  0.79430006    -0.45800
N2137       N  0.78408043  0.11821828  0.14330168    -0.35800
N2138       N  0.72800876  0.11863553  0.11244118    -0.56300
N2139       N  0.78466882  0.13095877  0.08463858    -0.35800
N2140       N  0.84110484  0.12872739  0.11570894    -0.56300
C2141       C  0.75422223  0.10866438  0.15319201     0.27800
C2142       C  0.81417237  0.11079980  0.15465694     0.27800
C2143       C  0.75430371  0.13856042  0.07345886     0.27800
C2144       C  0.81430440  0.14217518  0.07492707     0.27800
C2145       C  0.70560903  0.11359160  0.12711830     0.36400
C2146       C  0.70621151  0.12021942  0.09643983     0.36400
C2147       C  0.86265060  0.12794099  0.13183212     0.36400
C2148       C  0.86291188  0.13911282  0.10145739     0.36400
C2149       C  0.76547533  0.09599652  0.17119411    -0.21000
C2150       C  0.80317851  0.09703444  0.17206312    -0.21000
C2151       C  0.76503070  0.15324451  0.05619516    -0.21000
C2152       C  0.80257384  0.15431465  0.05687524    -0.21000
C2153       C  0.66951588  0.11106890  0.12034960    -0.22100
C2154       C  0.67000093  0.11403670  0.10097152    -0.22100
C2155       C  0.89829040  0.13777552  0.12782136    -0.22100
C2156       C  0.89841141  0.14525674  0.10869895    -0.22100
C2157       C  0.71696451  0.11072782  0.14657129    -0.17500
C2158       C  0.85133353  0.11682743  0.15006946    -0.17500
C2159       C  0.85138739  0.14497667  0.08212976    -0.17400
C2160       C  0.71709134  0.13381691  0.07842243    -0.17400
H2161       H  0.74829808  0.08634134  0.18246112     0.15500
H2162       H  0.82051229  0.08866067  0.18420087     0.15500
H2163       H  0.74780396  0.16293081  0.04429733     0.15500
H2164       H  0.81912643  0.16480801  0.04553457     0.15500
H2165       H  0.64515442  0.10765063  0.12845175     0.13700
H2166       H  0.64602735  0.11411598  0.09140088     0.13700
H2167       H  0.92174913  0.13975579  0.13768661     0.13700
H2168       H  0.92207391  0.15458903  0.10111529     0.13700
H2169       H  0.78371569  0.13191420  0.13020021     0.27000
H2170       H  0.78526600  0.11825136  0.09796825     0.27000
N2171       N  0.80194626  0.37992666  0.14139241    -0.35800
N2172       N  0.74336951  0.37223319  0.11325528    -0.56300
N2173       N  0.79607685  0.36532482  0.08372090    -0.35800
N2174       N  0.85485019  0.37338179  0.11339367    -0.56300
C2175       C  0.77279210  0.37488171  0.15231663     0.27800
C2176       C  0.83234660  0.37235652  0.15230583     0.27800
C2177       C  0.76552847  0.34933797  0.07535985     0.27800
C2178       C  0.82576482  0.35153943  0.07518227     0.27800
C2179       C  0.72507282  0.38786537  0.12748072     0.36400
C2180       C  0.72214051  0.37656632  0.09725023     0.36400
C2181       C  0.87671035  0.38646223  0.12788384     0.36400
C2182       C  0.87301701  0.37910913  0.09735938     0.36400
C2183       C  0.78451827  0.36343362  0.17042623    -0.21000
C2184       C  0.82223514  0.36123749  0.17034883    -0.21000
C2185       C  0.77606688  0.32535397  0.06107427    -0.21000
C2186       C  0.81400465  0.32709456  0.06083457    -0.21000
C2187       C  0.69208058  0.40256099  0.12053112    -0.22100
C2188       C  0.69020311  0.39537872  0.10129700    -0.22100
C2189       C  0.90889553  0.40120995  0.12102793    -0.22100
C2190       C  0.90678191  0.39601234  0.10164190    -0.22100
C2191       C  0.73693290  0.38600211  0.14678726    -0.17500
C2192       C  0.86835387  0.38220197  0.14718946    -0.17500
C2193       C  0.86286233  0.36149967  0.08001239    -0.17400
C2194       C  0.72873369  0.35751971  0.08013710    -0.17400
H2195       H  0.76777325  0.35861142  0.18256825     0.15500
H2196       H  0.84028157  0.35473649  0.18250847     0.15500
H2197       H  0.75834866  0.30843406  0.05174994     0.15500
H2198       H  0.83094826  0.31181578  0.05131560     0.15500
H2199       H  0.67112795  0.41588087  0.12855893     0.13700
H2200       H  0.66732893  0.40169069  0.09154686     0.13700
H2201       H  0.93194896  0.41309974  0.12916176     0.13700
H2202       H  0.92817973  0.40244852  0.09188626     0.13700
H2203       H  0.80124585  0.39446101  0.12843791     0.27000
H2204       H  0.79667593  0.38668214  0.09387440     0.27000
C2205       C  0.67746721  0.08977283  0.79927917    -0.04500
C2206       C  0.69239981  0.06743276  0.81437247    -0.01600
C2207       C  0.71989435  0.08249688  0.82668265     0.03400
C2208       C  0.73333920  0.11952396  0.82362072    -0.04500
C2209       C  0.71986368  0.14115278  0.80792525    -0.01600
C2210       C  0.69155916  0.12641427  0.79584926     0.03400
C2211       C  0.68026205  0.02849794  0.81688367     0.38000
C2212       C  0.73562677  0.17814340  0.80410637     0.38000
C2213       C  0.67698031  0.14877872  0.77991842     0.36400
C2214       C  0.73469820  0.05975636  0.84243076     0.36400
N2215       N  0.66534058  0.16658211  0.76719628    -0.38400
N2216       N  0.74663041  0.04156086  0.85493234    -0.38400
N2217       N  0.74858757  0.20747151  0.80098436    -0.37800
N2218       N  0.67065473  0.99738783  0.81866464    -0.37800
C2219       C  0.92477736  0.12318820  0.83514718    -0.04500
C2220       C  0.94489876  0.08954398  0.83806416    -0.01600
C2221       C  0.96812862  0.07660324  0.82396497     0.03400
C2222       C  0.97199200  0.09771345  0.80684492    -0.04500
C2223       C  0.95395753  0.13284308  0.80466038    -0.01600
C2224       C  0.93028587  0.14538521  0.81867667     0.03400
C2225       C  0.94060085  0.06740437  0.85532516     0.38000
C2226       C  0.96014131  0.15638489  0.78808131     0.38000
C2227       C  0.91105176  0.18096994  0.81609205     0.36400
C2228       C  0.98639326  0.04050339  0.82688886     0.36400
N2229       N  0.89563881  0.20934758  0.81411200    -0.38400
N2230       N  0.00086975  0.01169967  0.82932288    -0.38400
N2231       N  0.96529155  0.17532064  0.77492792    -0.37800
N2232       N  0.93742595  0.04990805  0.86915852    -0.37800
C2233       C  0.70835949  0.34554916  0.83175948    -0.04500
C2234       C  0.70307546  0.38509639  0.83279496    -0.01600
C2235       C  0.67688540  0.40304654  0.82060579     0.03400
C2236       C  0.65540338  0.38146430  0.80745170    -0.04500
C2237       C  0.65888178  0.34166556  0.80730909    -0.01600
C2238       C  0.68504897  0.32365878  0.81959921     0.03400
C2239       C  0.72480768  0.40727578  0.84647111     0.38000
C2240       C  0.63567226  0.31935740  0.79437529     0.38000
C2241       C  0.68781167  0.28273325  0.81979941     0.36400
C2242       C  0.67277174  0.44386428  0.82130103     0.36400
N2243       N  0.68925750  0.24999450  0.82019344    -0.38400
N2244       N  0.66941237  0.47640581  0.82196485    -0.38400
N2245       N  0.61705066  0.30168774  0.78404391    -0.37800
N2246       N  0.74215660  0.42467928  0.85747804    -0.37800
C2247       C  0.89426988  0.38315009  0.83159712    -0.04500
C2248       C  0.92282735  0.36038895  0.82525410    -0.01600
C2249       C  0.94755039  0.37521788  0.81227113     0.03400
C2250       C  0.94241140  0.41197843  0.80470760    -0.04500
C2251       C  0.91355670  0.43472098  0.81092295    -0.01600
C2252       C  0.89023767  0.42065218  0.82482182     0.03400
C2253       C  0.92579927  0.32119063  0.83152362     0.38000
C2254       C  0.90761352  0.47244020  0.80306013     0.38000
C2255       C  0.86187343  0.44446227  0.83208193     0.36400
C2256       C  0.97762744  0.35221077  0.80621499     0.36400
N2257       N  0.83926269  0.46332302  0.83797804    -0.38400
N2258       N  0.50590244  0.33450944  0.80464413    -0.38400
N2259       N  0.90247287  0.50239823  0.79671218    -0.37800
N2260       N  0.92782900  0.28984416  0.83640648    -0.37800
C2261       C  0.62862155  0.17890147  0.04176042    -0.04500
C2262       C  0.65170346  0.15093632  0.03467658    -0.01600
C2263       C  0.67906215  0.13417316  0.04687522     0.03400
C2264       C  0.68722505  0.14957387  0.06514770    -0.04500
C2265       C  0.66531926  0.17949065  0.07150169    -0.01600
C2266       C  0.63390190  0.19051854  0.06078436     0.03400
C2267       C  0.64648100  0.13863502  0.01515988     0.38000
C2268       C  0.67458032  0.19858893  0.08928836     0.38000
C2269       C  0.60517059  0.21037161  0.07006145     0.36400
C2270       C  0.69823583  0.10091298  0.04078383     0.36400
N2271       N  0.58134600  0.22405783  0.07779690    -0.38400
N2272       N  0.71339048  0.07418865  0.03597800    -0.38400
N2273       N  0.68209846  0.21354045  0.10351287    -0.37800
N2274       N  0.64242496  0.12893744  0.99953635    -0.37800
C2275       C  0.93421769  0.19191392  0.04558382    -0.04500
C2276       C  0.90265201  0.21308689  0.05009309    -0.01600
C2277       C  0.87783566  0.19870259  0.06316024     0.03400
C2278       C  0.87960449  0.16050926  0.06907523    -0.04500
C2279       C  0.90896646  0.13800393  0.06335580    -0.01600
C2280       C  0.93744928  0.15432047  0.05283808     0.03400
C2281       C  0.89447071  0.24946507  0.04120160     0.38000
C2282       C  0.91020267  0.09821103  0.06869131     0.38000
C2283       C  0.96993564  0.13220585  0.04976546     0.36400
C2284       C  0.85046519  0.22344048  0.07074973     0.36400
N2285       N  0.49349737  0.11213524  0.04191171    -0.34600
N2286       N  0.82862907  0.24281481  0.07698706    -0.38400
N2287       N  0.91106194  0.06643028  0.07288878    -0.37800
N2288       N  0.88727786  0.27795580  0.03373763    -0.37800
C2289       C  0.63154299  0.31856161  0.04615399    -0.04500
C2290       C  0.63357502  0.31570530  0.06629146    -0.01600
C2291       C  0.66671482  0.32362390  0.07669230     0.03400
C2292       C  0.69572161  0.34361954  0.06811841    -0.04500
C2293       C  0.69150878  0.35231407  0.04850416    -0.01600
C2294       C  0.66152975  0.33711846  0.03737378     0.03400
C2295       C  0.60083730  0.30852975  0.07673544     0.38000
C2296       C  0.71758774  0.37763229  0.03976816     0.38000
C2297       C  0.66313230  0.33975694  0.01688980     0.36400
C2298       C  0.67085448  0.31048788  0.09627522     0.36400
N2299       N  0.66559453  0.34157284  0.00057037    -0.38400
N2300       N  0.67439023  0.30009311  0.11188872    -0.38400
N2301       N  0.73823168  0.39812183  0.03289013    -0.37800
N2302       N  0.57475270  0.30433570  0.08534403    -0.37800
C2303       C  0.95883816  0.32341109  0.05099529    -0.04500
C2304       C  0.93859883  0.35527710  0.04403033    -0.01600
C2305       C  0.90614427  0.36650850  0.05280836     0.03400
C2306       C  0.89389020  0.34684284  0.06890076    -0.04500
C2307       C  0.91494755  0.31665822  0.07660436    -0.01600
C2308       C  0.94740193  0.30547088  0.06809273     0.03400
C2309       C  0.95170939  0.37765318  0.02829198     0.38000
C2310       C  0.90292151  0.29672710  0.09346084     0.38000
C2311       C  0.96794832  0.27459924  0.07708339     0.36400
C2312       C  0.88536903  0.39864169  0.04544423     0.36400
N2313       N  0.98406925  0.24997121  0.08436726    -0.38400
N2314       N  0.86855956  0.42419027  0.03962470    -0.38400
N2315       N  0.89341014  0.28087240  0.10688261    -0.37800
N2316       N  0.96224500  0.39586381  0.01585945    -0.37800
C2317       C  0.59405865  0.28902570  0.94547664    -0.04500
C2318       C  0.62416441  0.31414575  0.94740974    -0.01600
C2319       C  0.65625440  0.30594056  0.93754251     0.03400
C2320       C  0.65758164  0.27206722  0.92683027    -0.04500
C2321       C  0.62348974  0.26273454  0.91800330    -0.01600
C2322       C  0.59269904  0.26476995  0.92918038     0.03400
C2323       C  0.62216529  0.34722713  0.95929344     0.38000
C2324       C  0.62098823  0.24550674  0.89941806     0.38000
C2325       C  0.56284007  0.23797842  0.92521802     0.36400
C2326       C  0.68663213  0.33233768  0.93749955     0.36400
N2327       N  0.53952051  0.21599628  0.92251012    -0.38400
N2328       N  0.71070381  0.35385037  0.93727348    -0.38400
N2329       N  0.61789402  0.23205702  0.88448699    -0.37800
N2330       N  0.62006918  0.37410775  0.96848763    -0.37800
C2331       C  0.91166612  0.31351589  0.92366529    -0.04500
C2332       C  0.94753952  0.30356165  0.91882417    -0.01600
C2333       C  0.97588585  0.30217198  0.93294652     0.03400
C2334       C  0.96759511  0.30124443  0.95226594    -0.04500
C2335       C  0.93224836  0.31342205  0.95723768    -0.01600
C2336       C  0.90537274  0.32214868  0.94284633     0.03400
C2337       C  0.95581361  0.29443913  0.89940930     0.38000
C2338       C  0.92280736  0.31632999  0.97699733     0.38000
C2339       C  0.87076723  0.33863673  0.94777553     0.36400
C2340       C  0.50460900  0.30309175  0.92456195     0.36400
N2341       N  0.84304482  0.35168486  0.95154929    -0.38400
N2342       N  0.53137723  0.31264439  0.91765763    -0.38400
N2343       N  0.91479018  0.31882280  0.99268220    -0.37800
N2344       N  0.96269520  0.28697872  0.88397756    -0.37800
C2345       C  0.68020570  0.23879645  0.93503958    -0.04500
C2346       C  0.66275924  0.20266543  0.93512164    -0.01600
C2347       C  0.64597103  0.19083235  0.95191737     0.03400
C2348       C  0.65475952  0.21068880  0.96884574    -0.04500
C2349       C  0.68771684  0.23221622  0.96931355    -0.01600
C2350       C  0.70148054  0.24533090  0.95193315     0.03400
C2351       C  0.65993243  0.17988877  0.91814989     0.38000
C2352       C  0.70493923  0.24332781  0.98733948     0.38000
C2353       C  0.73464615  0.26781450  0.95155884     0.36400
C2354       C  0.61837911  0.16119924  0.95136104     0.36400
N2355       N  0.76123989  0.28587399  0.95161192    -0.38400
N2356       N  0.59615059  0.13764062  0.95088114    -0.38400
N2357       N  0.71855266  0.25209676  0.00180151    -0.37800
N2358       N  0.65755357  0.16082773  0.90484296    -0.37800
C2359       C  0.94856766  0.16883351  0.96589675    -0.04500
C2360       C  0.91106846  0.17811672  0.96617003    -0.01600
C2361       C  0.88665568  0.16953629  0.95061584     0.03400
C2362       C  0.89899155  0.15022119  0.93430893    -0.04500
C2363       C  0.93372308  0.13262934  0.93652258    -0.01600
C2364       C  0.95915549  0.14352503  0.95144241     0.03400
C2365       C  0.89701576  0.19627742  0.98283928     0.38000
C2366       C  0.94225274  0.10135025  0.92418292     0.38000
C2367       C  0.49110430  0.12495205  0.95112399     0.36400
C2368       C  0.84859321  0.17829027  0.95310792     0.36400
N2369       N  0.51799912  0.10779844  0.95184497    -0.38400
N2370       N  0.81880809  0.18441898  0.95709043    -0.38400
N2371       N  0.94848249  0.07620149  0.91438629    -0.37800
N2372       N  0.88589941  0.21080348  0.99608528    -0.37800
C2373       C  0.89615813  0.39238211  0.16272325    -0.04500
C2374       C  0.88745205  0.42066586  0.17574153    -0.01600
C2375       C  0.90956496  0.42649869  0.19221963     0.03400
C2376       C  0.94518333  0.41023712  0.19417936    -0.04500
C2377       C  0.95492854  0.38301129  0.18052610    -0.01600
C2378       C  0.92980028  0.37299883  0.16539153     0.03400
C2379       C  0.85541033  0.44426550  0.17228034     0.38000
C2380       C  0.49754226  0.37228798  0.17727483     0.38000
C2381       C  0.93863109  0.34265247  0.15260961     0.36400
C2382       C  0.89357566  0.44755679  0.20745833     0.36400
N2383       N  0.94593165  0.31855474  0.14240217    -0.38400
N2384       N  0.88004378  0.46384362  0.21950520    -0.38400
N2385       N  0.52734975  0.36234748  0.17557062    -0.37800
N2386       N  0.83004333  0.46332459  0.16975180    -0.37800
C2387       C  0.71316356  0.40140250  0.16159363    -0.04500
C2388       C  0.68748834  0.37832930  0.17067056    -0.01600
C2389       C  0.66558224  0.39350834  0.18486603     0.03400
C2390       C  0.67000594  0.43201023  0.19061035    -0.04500
C2391       C  0.69629388  0.45488904  0.18116418    -0.01600
C2392       C  0.71690619  0.43973294  0.16656650     0.03400
C2393       C  0.68396119  0.33872970  0.16545163     0.38000
C2394       C  0.70342441  0.49415052  0.18604704     0.38000
C2395       C  0.74179249  0.46399113  0.15622665     0.36400
C2396       C  0.63913245  0.36871845  0.19362645     0.36400
N2397       N  0.76107919  0.48348637  0.14780280    -0.38400
N2398       N  0.61802407  0.34870850  0.20047183    -0.38400
N2399       N  0.71077307  0.52535986  0.18959316    -0.37800
N2400       N  0.68130691  0.30711538  0.16131906    -0.37800
C2401       C  0.93567706  0.08949095  0.19337690    -0.04500
C2402       C  0.92000728  0.12602337  0.19269811    -0.01600
C2403       C  0.89302123  0.13533482  0.17838235     0.03400
C2404       C  0.88084998  0.10792891  0.16495734    -0.04500
C2405       C  0.89714721  0.07181021  0.16534336    -0.01600
C2406       C  0.92483684  0.06288357  0.17920158     0.03400
C2407       C  0.93006778  0.15331232  0.20732013     0.38000
C2408       C  0.88468945  0.04342358  0.15167479     0.38000
C2409       C  0.94255482  0.02626226  0.17863206     0.36400
C2410       C  0.87727613  0.17291141  0.17758200     0.36400
N2411       N  0.96388546  0.49758490  0.17692609    -0.38400
N2412       N  0.86470934  0.20291885  0.17685728    -0.38400
N2413       N  0.87454439  0.02078248  0.14083148    -0.37800
N2414       N  0.93794155  0.17502289  0.21906316    -0.37800
C2415       C  0.63749375  0.10352945  0.19065592    -0.04500
C2416       C  0.65772990  0.13722960  0.18796032    -0.01600
C2417       C  0.68210397  0.14017018  0.17290253     0.03400
C2418       C  0.68788990  0.10871220  0.16108913    -0.04500
C2419       C  0.66622524  0.07568880  0.16320203    -0.01600
C2420       C  0.64039342  0.07360096  0.17757757     0.03400
C2421       C  0.65519680  0.16796856  0.20137083     0.38000
C2422       C  0.67127786  0.04342350  0.15095670     0.38000
C2423       C  0.61750315  0.04002741  0.17934303     0.36400
C2424       C  0.70161200  0.17545095  0.16962299     0.36400
N2425       N  0.59910208  0.01335096  0.18068828    -0.38400
N2426       N  0.71701141  0.20361890  0.16680797    -0.38400
N2427       N  0.67517518  0.01778741  0.14110906    -0.37800
N2428       N  0.65337991  0.19243866  0.21213385    -0.37800
C2429       C  0.66399648  0.09080014  0.69229888    -0.04500
C2430       C  0.70196010  0.09984590  0.69481657    -0.01600
C2431       C  0.71827557  0.12738738  0.68303921     0.03400
C2432       C  0.69673075  0.14753101  0.66941680    -0.04500
C2433       C  0.65910032  0.13937851  0.66711268    -0.01600
C2434       C  0.64362857  0.10916965  0.67720529     0.03400
C2435       C  0.72553574  0.07889651  0.70813518     0.38000
C2436       C  0.63689322  0.16021497  0.65298147     0.38000
C2437       C  0.60845274  0.09499790  0.66996044     0.36400
C2438       C  0.75751602  0.13428135  0.68446628     0.36400
N2439       N  0.58122048  0.08433905  0.66283717    -0.38400
N2440       N  0.78881229  0.13977774  0.68553012    -0.38400
N2441       N  0.61975219  0.17640814  0.64140050    -0.37800
N2442       N  0.74516830  0.06248098  0.71852415    -0.37800
C2443       C  0.68603489  0.33238279  0.66541184    -0.04500
C2444       C  0.70197721  0.36456221  0.67419537    -0.01600
C2445       C  0.68295914  0.38382865  0.68816803     0.03400
C2446       C  0.64844455  0.37001961  0.69376804    -0.04500
C2447       C  0.63207746  0.33858378  0.68447184    -0.01600
C2448       C  0.65072277  0.31994756  0.67027180     0.03400
C2449       C  0.73798626  0.37753449  0.66891376     0.38000
C2450       C  0.59600653  0.32527088  0.68959284     0.38000
C2451       C  0.63371318  0.28762126  0.66071665     0.36400
C2452       C  0.69812584  0.41880889  0.69595094     0.36400
N2453       N  0.62027375  0.26182188  0.65307422    -0.38400
N2454       N  0.71010704  0.44689382  0.70201714    -0.38400
N2455       N  0.56721129  0.31481952  0.69364844    -0.37800
N2456       N  0.76667449  0.38783723  0.66460908    -0.37800
C2457       C  0.96709755  0.16397946  0.65871975    -0.04500
C2458       C  0.93952929  0.13954913  0.66549832    -0.01600
C2459       C  0.94788031  0.11367697  0.68041130     0.03400
C2460       C  0.98311894  0.11390081  0.68934754    -0.04500
C2461       C  0.00987646  0.14004623  0.68340097    -0.01600
C2462       C  0.00247175  0.16373636  0.66759630     0.03400
C2463       C  0.90274472  0.14074019  0.65691639     0.38000
C2464       C  0.54425367  0.14309958  0.69354974     0.38000
C2465       C  0.52866503  0.18818092  0.66039473     0.36400
C2466       C  0.92100575  0.08548834  0.68577665     0.36400
N2467       N  0.55056721  0.20851291  0.65452549    -0.38400
N2468       N  0.89969592  0.06275151  0.68994526    -0.38400
N2469       N  0.57244058  0.14557680  0.70160029    -0.37800
N2470       N  0.87346869  0.14178047  0.64999297    -0.37800
C2471       C  0.91541534  0.35338428  0.66001627    -0.04500
C2472       C  0.93221026  0.38933259  0.65726720    -0.01600
C2473       C  0.93776170  0.41405394  0.67266827     0.03400
C2474       C  0.93361105  0.40039908  0.69131241    -0.04500
C2475       C  0.91280794  0.36721205  0.69406424    -0.01600
C2476       C  0.90168732  0.34486682  0.67819246     0.03400
C2477       C  0.94760694  0.40003299  0.63937175     0.38000
C2478       C  0.90541051  0.35473828  0.71320720     0.38000
C2479       C  0.87906747  0.31142038  0.68082463     0.36400
C2480       C  0.95092078  0.45252933  0.66957073     0.36400
N2481       N  0.86101646  0.28471478  0.68292971    -0.38400
N2482       N  0.96115943  0.48325067  0.66710893    -0.38400
N2483       N  0.89964429  0.34486796  0.72853598    -0.37800
N2484       N  0.96015849  0.40977851  0.62531666    -0.37800
C2485       C  0.88500504  0.10093425  0.53764315    -0.04500
C2486       C  0.91637586  0.12059516  0.53156090    -0.01600
C2487       C  0.93487289  0.14710876  0.54394219     0.03400
C2488       C  0.91829306  0.15908488  0.56082636    -0.04500
C2489       C  0.88611142  0.13993925  0.56614124    -0.01600
C2490       C  0.87374487  0.10774745  0.55617579     0.03400
C2491       C  0.93029965  0.11261194  0.51307518     0.38000
C2492       C  0.86632502  0.15234746  0.58241434     0.38000
C2493       C  0.85972751  0.07656850  0.56713420     0.36400
C2494       C  0.97149843  0.15982089  0.53987247     0.36400
N2495       N  0.85211942  0.05099818  0.57660740    -0.38400
N2496       N  0.00089991  0.16971522  0.53663025    -0.38400
N2497       N  0.85110463  0.16324048  0.59536930    -0.37800
N2498       N  0.94157178  0.10634177  0.49830358    -0.37800
C2499       C  0.91516237  0.35847220  0.56361819    -0.04500
C2500       C  0.93522871  0.39176127  0.56853807    -0.01600
C2501       C  0.92516718  0.42680526  0.56010287     0.03400
C2502       C  0.90045887  0.42722354  0.54422306    -0.04500
C2503       C  0.88944567  0.39225167  0.53613413    -0.01600
C2504       C  0.89203733  0.35895873  0.54710052     0.03400
C2505       C  0.96690066  0.38935229  0.58153221     0.38000
C2506       C  0.87914933  0.38958114  0.51617611     0.38000
C2507       C  0.86975141  0.32629382  0.54167283     0.36400
C2508       C  0.94150408  0.46188474  0.56700146     0.36400
N2509       N  0.85190322  0.30028460  0.53731313    -0.38400
N2510       N  0.95460866  0.48996983  0.57241541    -0.38400
N2511       N  0.87221067  0.38708901  0.50006611    -0.37800
N2512       N  0.99313949  0.38687711  0.59123693    -0.37800
C2513       C  0.75080622  0.14023905  0.57672060    -0.04500
C2514       C  0.73165440  0.13877647  0.55887344    -0.01600
C2515       C  0.73436677  0.10650561  0.54729290     0.03400
C2516       C  0.75567419  0.07517065  0.55376076    -0.04500
C2517       C  0.76793818  0.07395832  0.57288548    -0.01600
C2518       C  0.76904949  0.10721276  0.58370257     0.03400
C2519       C  0.70806034  0.16984020  0.55275111     0.38000
C2520       C  0.77524360  0.03760756  0.58193401     0.38000
C2521       C  0.78773549  0.10659653  0.60232468     0.36400
C2522       C  0.71329246  0.10489265  0.52939478     0.36400
N2523       N  0.80253537  0.10572881  0.61718935    -0.38400
N2524       N  0.69583051  0.10354751  0.51530401    -0.38400
N2525       N  0.78009822  0.00868799  0.58944851    -0.37800
N2526       N  0.68913793  0.19460586  0.54799035    -0.37800
C2527       C  0.75745665  0.34264117  0.57425143    -0.04500
C2528       C  0.74459109  0.34447188  0.55500759    -0.01600
C2529       C  0.75602600  0.37431230  0.54283251     0.03400
C2530       C  0.78006035  0.40326192  0.54972723    -0.04500
C2531       C  0.79195376  0.40207314  0.56915329    -0.01600
C2532       C  0.78061207  0.37225844  0.58127434     0.03400
C2533       C  0.71839294  0.31638791  0.54789487     0.38000
C2534       C  0.81724535  0.43059238  0.57670498     0.38000
C2535       C  0.79223196  0.37242975  0.60124438     0.36400
C2536       C  0.74207869  0.37582173  0.52326244     0.36400
N2537       N  0.80012289  0.37246674  0.61734234    -0.38400
N2538       N  0.73067279  0.37705144  0.50768280    -0.38400
N2539       N  0.83765899  0.45272941  0.58313764    -0.37800
N2540       N  0.69735336  0.29403422  0.54226796    -0.37800
C2541       C  0.63783649  0.12036533  0.31430123    -0.04500
C2542       C  0.61902176  0.12730075  0.33101437    -0.01600
C2543       C  0.63318584  0.15338559  0.34444415     0.03400
C2544       C  0.66669867  0.17217201  0.34141236    -0.04500
C2545       C  0.68642768  0.16414614  0.32513668    -0.01600
C2546       C  0.67204905  0.13817014  0.31156791     0.03400
C2547       C  0.58499576  0.10748943  0.33443866     0.38000
C2548       C  0.72078604  0.18372032  0.32210380     0.38000
C2549       C  0.69146003  0.13143136  0.29436538     0.36400
C2550       C  0.61238748  0.16229116  0.36096447     0.36400
N2551       N  0.70692837  0.12611166  0.28061819    -0.38400
N2552       N  0.59563447  0.16960820  0.37403526    -0.38400
N2553       N  0.74812994  0.19954306  0.31974285    -0.37800
N2554       N  0.55794431  0.09159389  0.33728003    -0.37800
C2555       C  0.66293165  0.42015703  0.31157237    -0.04500
C2556       C  0.68851412  0.39071876  0.31025794    -0.01600
C2557       C  0.69586418  0.36631355  0.32592364     0.03400
C2558       C  0.67622484  0.36992684  0.34275615    -0.04500
C2559       C  0.65270351  0.40137822  0.34453521    -0.01600
C2560       C  0.64674626  0.42688207  0.32908547     0.03400
C2561       C  0.70609681  0.38453548  0.29243706     0.38000
C2562       C  0.63214723  0.40581276  0.36157209     0.38000
C2563       C  0.62070919  0.45749819  0.33048325     0.36400
C2564       C  0.72288237  0.33665150  0.32449787     0.36400
N2565       N  0.59968943  0.48169331  0.33149530    -0.38400
N2566       N  0.74434170  0.31290612  0.32337893    -0.38400
N2567       N  0.61577773  0.40942555  0.37517350    -0.37800
N2568       N  0.72000642  0.37956091  0.27819262    -0.37800
C2569       C  0.71398034  0.15688364  0.43556208    -0.04500
C2570       C  0.70069258  0.11977441  0.43094991    -0.01600
C2571       C  0.71523188  0.08727875  0.44059234     0.03400
C2572       C  0.73761487  0.09145781  0.45725164    -0.04500
C2573       C  0.74399617  0.12853804  0.46420446    -0.01600
C2574       C  0.73571493  0.16066723  0.45266831     0.03400
C2575       C  0.67149097  0.11491852  0.41654680     0.38000
C2576       C  0.75753996  0.13397271  0.48362844     0.38000
C2577       C  0.75056551  0.19708630  0.45860390     0.36400
C2578       C  0.70636983  0.04967111  0.43360840     0.36400
N2579       N  0.76210702  0.22594295  0.46388495    -0.38400
N2580       N  0.69933890  0.01974774  0.42783979    -0.38400
N2581       N  0.76698506  0.13847522  0.49934682    -0.37800
N2582       N  0.64813135  0.11119324  0.40507635    -0.37800
C2583       C  0.75255593  0.40423449  0.46450779    -0.04500
C2584       C  0.76868222  0.36928958  0.45935634    -0.01600
C2585       C  0.74940521  0.34380698  0.44735777     0.03400
C2586       C  0.71287916  0.35099780  0.44142464    -0.04500
C2587       C  0.69544654  0.38386051  0.44783685    -0.01600
C2588       C  0.71529168  0.41057554  0.45922301     0.03400
C2589       C  0.80584154  0.35921773  0.46535488     0.38000
C2590       C  0.65754786  0.39080164  0.44205633     0.38000
C2591       C  0.69708460  0.44398771  0.46589249     0.36400
C2592       C  0.76842425  0.31165945  0.43962431     0.36400
N2593       N  0.68258666  0.47055132  0.47138803    -0.38400
N2594       N  0.78348185  0.28642624  0.43313725    -0.38400
N2595       N  0.62728766  0.39639169  0.43743216    -0.37800
N2596       N  0.83519627  0.34939511  0.46962192    -0.37800
C2597       C  0.94053909  0.15017905  0.34476870    -0.04500
C2598       C  0.92537924  0.15449859  0.32601122    -0.01600
C2599       C  0.93790101  0.13193901  0.31116969     0.03400
C2600       C  0.96234427  0.10201502  0.31527255    -0.04500
C2601       C  0.97272658  0.09372306  0.33436660    -0.01600
C2602       C  0.96396591  0.11913844  0.34890536     0.03400
C2603       C  0.89792661  0.18320107  0.32186874     0.38000
C2604       C  0.99265310  0.05926207  0.33898866     0.38000
C2605       C  0.98167618  0.11504879  0.36759443     0.36400
C2606       C  0.92625858  0.13996111  0.29159893     0.36400
N2607       N  0.99654470  0.11187538  0.38235121    -0.38400
N2608       N  0.91732630  0.14638179  0.27593539    -0.38400
N2609       N  0.00795081  0.03138394  0.34269009    -0.37800
N2610       N  0.87591334  0.20600491  0.31859591    -0.37800
C2611       C  0.95567280  0.34556071  0.33949826    -0.04500
C2612       C  0.98737561  0.36792135  0.34300334    -0.01600
C2613       C  0.99856705  0.39415295  0.32924264     0.03400
C2614       C  0.97890117  0.39742093  0.31167433    -0.04500
C2615       C  0.94659274  0.37586412  0.30828815    -0.01600
C2616       C  0.93494776  0.34990389  0.32222271     0.03400
C2617       C  0.00872114  0.36355238  0.36074379     0.38000
C2618       C  0.92587777  0.37980091  0.29034954     0.38000
C2619       C  0.90189755  0.32749596  0.31877889     0.36400
C2620       C  0.55426523  0.37343166  0.32130665     0.36400
N2621       N  0.87554986  0.30959180  0.31599933    -0.38400
N2622       N  0.58552010  0.37533048  0.31956965    -0.38400
N2623       N  0.90935110  0.38308317  0.27604395    -0.37800
N2624       N  0.54968278  0.31765161  0.36331540    -0.37800
C2625       C  0.87365504  0.10571232  0.46650902    -0.04500
C2626       C  0.90079779  0.09747790  0.45337602    -0.01600
C2627       C  0.91527311  0.12686947  0.44185938     0.03400
C2628       C  0.89891317  0.16337835  0.44107043    -0.04500
C2629       C  0.87320864  0.17164720  0.45495897    -0.01600
C2630       C  0.86465091  0.14437518  0.46887692     0.03400
C2631       C  0.91427821  0.05921856  0.45163806     0.38000
C2632       C  0.85444872  0.20768296  0.45494204     0.38000
C2633       C  0.85003160  0.15721965  0.48653524     0.36400
C2634       C  0.94708058  0.11941159  0.43087219     0.36400
N2635       N  0.84003046  0.16828399  0.50084770    -0.38400
N2636       N  0.97268095  0.11334127  0.42227939    -0.38400
N2637       N  0.84003479  0.23674342  0.45513108    -0.37800
N2638       N  0.92525115  0.02876588  0.45011006    -0.37800
C2639       C  0.89807047  0.36214914  0.43204842    -0.04500
C2640       C  0.92123607  0.38181828  0.44530028    -0.01600
C2641       C  0.90854364  0.41449521  0.45465983     0.03400
C2642       C  0.87331963  0.42960316  0.44994795    -0.04500
C2643       C  0.85122818  0.41108559  0.43571650    -0.01600
C2644       C  0.86278772  0.37694110  0.42757193     0.03400
C2645       C  0.95866180  0.36937660  0.44879889     0.38000
C2646       C  0.81598053  0.42644810  0.42943708     0.38000
C2647       C  0.83867809  0.35770684  0.41374429     0.36400
C2648       C  0.93260964  0.43336133  0.46856509     0.36400
N2649       N  0.81972248  0.34270260  0.40251769    -0.38400
N2650       N  0.95190415  0.44829167  0.47966992    -0.38400
N2651       N  0.78798557  0.43869085  0.42424385    -0.37800
N2652       N  0.98851146  0.35942221  0.45166738    -0.37800
N2653       N  0.94245956  0.74697508  0.36384859    -0.35800
N2654       N  0.92602726  0.69250087  0.39283856    -0.56300
N2655       N  0.91054901  0.75595844  0.41797648    -0.35800
N2656       N  0.92859038  0.80938117  0.38887690    -0.56300
C2657       C  0.95595272  0.71464465  0.35689651     0.27800
C2658       C  0.95876517  0.77598351  0.35478059     0.27800
C2659       C  0.91463340  0.72637896  0.43031627     0.27800
C2660       C  0.91304183  0.78856478  0.42812222     0.27800
C2661       C  0.92294288  0.67034815  0.37721299     0.36400
C2662       C  0.90736290  0.67492211  0.40659719     0.36400
C2663       C  0.93204666  0.82859117  0.37238053     0.36400
C2664       C  0.91449941  0.83400139  0.40112551     0.36400
C2665       C  0.98179812  0.72322957  0.34355773    -0.21000
C2666       C  0.98338272  0.76212119  0.34212786    -0.21000
C2667       C  0.92114904  0.74059483  0.44852577    -0.21000
C2668       C  0.91896892  0.77968835  0.44720240    -0.21000
C2669       C  0.90198617  0.63850901  0.38095460    -0.22100
C2670       C  0.89200045  0.64142407  0.39959709    -0.22100
C2671       C  0.92066814  0.86567225  0.37416607    -0.22100
C2672       C  0.90977970  0.86922202  0.39243676    -0.22100
C2673       C  0.94094836  0.67829331  0.36017715    -0.17500
C2674       C  0.94925381  0.81429333  0.35647950    -0.17500
C2675       C  0.90812943  0.82569519  0.42039077    -0.17400
C2676       C  0.90706287  0.68755246  0.42571194    -0.17400
H2677       H  0.99667630  0.70349190  0.33512654     0.15500
H2678       H  0.99994782  0.77831002  0.33250534     0.15500
H2679       H  0.92487724  0.72440224  0.46158884     0.15500
H2680       H  0.92129946  0.79919824  0.45897408     0.15500
H2681       H  0.89500369  0.61551255  0.37135496     0.13700
H2682       H  0.87573270  0.62098457  0.40719661     0.13700
H2683       H  0.92121148  0.88812054  0.36359208     0.13700
H2684       H  0.90029876  0.89511717  0.39864698     0.13700
H2685       H  0.91944031  0.74902791  0.37203109     0.27000
H2686       H  0.90137709  0.75387543  0.40381421     0.27000
N2687       N  0.67073895  0.76525941  0.36440626    -0.35800
N2688       N  0.68406925  0.70287335  0.39131674    -0.56300
N2689       N  0.69174493  0.75671043  0.42081028    -0.35800
N2690       N  0.67639651  0.82017531  0.39380993    -0.56300
C2691       C  0.65820128  0.73492259  0.35454314     0.27800
C2692       C  0.65574893  0.79630347  0.35594167     0.27800
C2693       C  0.68748968  0.72402610  0.43094907     0.27800
C2694       C  0.68402230  0.78623960  0.43211972     0.27800
C2695       C  0.68838438  0.68559641  0.37454373     0.36400
C2696       C  0.70063587  0.68089699  0.40488106     0.36400
C2697       C  0.68151683  0.84248244  0.37839543     0.36400
C2698       C  0.69210009  0.83845088  0.40878769     0.36400
C2699       C  0.63432644  0.74664203  0.33983394    -0.21000
C2700       C  0.63262794  0.78555874  0.34078749    -0.21000
C2701       C  0.67545328  0.73308814  0.44879871    -0.21000
C2702       C  0.67426254  0.77233634  0.44969943    -0.21000
C2703       C  0.70781061  0.65238009  0.37728133    -0.22100
C2704       C  0.71634871  0.64978962  0.39649629    -0.22100
C2705       C  0.70048585  0.87515095  0.38353471    -0.22100
C2706       C  0.70711998  0.87269226  0.40287872    -0.22100
C2707       C  0.67142378  0.69780524  0.35727691    -0.17500
C2708       C  0.66715524  0.83373866  0.36006024    -0.17500
C2709       C  0.69177912  0.82490260  0.42772796    -0.17400
C2710       C  0.69786847  0.68719101  0.42469184    -0.17400
H2711       H  0.62063025  0.72913105  0.32912373     0.15500
H2712       H  0.61751886  0.80396081  0.33095107     0.15500
H2713       H  0.66993742  0.71356954  0.46030232     0.15500
H2714       H  0.66792267  0.78883044  0.46202308     0.15500
H2715       H  0.71478482  0.63209007  0.36658542     0.13700
H2716       H  0.73145062  0.62700706  0.40347970     0.13700
H2717       H  0.70848392  0.89829168  0.37435547     0.13700
H2718       H  0.72139903  0.89371515  0.41154199     0.13700
H2719       H  0.69253933  0.76512590  0.37444819     0.27000
H2720       H  0.70468460  0.75938066  0.40793505     0.27000
O2721       O  0.86621681  0.96731701  0.47630454    -0.79300
O2722       O  0.82667999  0.58454311  0.52327017    -0.79300
O2723       O  0.85703788  0.54051330  0.47847208    -0.79300
O2724       O  0.86764971  0.98371436  0.54641632    -0.79300
O2725       O  0.81933651  0.58541541  0.48510967    -0.79400
O2726       O  0.88033371  0.97032611  0.51695653    -0.79300
O2727       O  0.86954085  0.54243334  0.52260144    -0.79300
O2728       O  0.83410808  0.98392352  0.45064673    -0.79300
C2729       C  0.85708369  0.96123069  0.45865087     1.10400
C2730       C  0.85982455  0.57553208  0.52665400     1.10300
C2731       C  0.84930114  0.57541828  0.47835559     1.10400
C2732       C  0.88481562  0.96317505  0.53486470     1.10300
O2733       O  0.81532010  0.92167995  0.52065744    -0.79300
O2734       O  0.74777384  0.54956294  0.48652846    -0.79400
O2735       O  0.77205334  0.96939145  0.46980851    -0.79300
O2736       O  0.80395824  0.53696609  0.54573120    -0.79300
O2737       O  0.75753343  0.54405073  0.52546226    -0.79300
O2738       O  0.80130311  0.92384702  0.48408237    -0.79300
O2739       O  0.79579162  0.96730718  0.53714690    -0.79300
O2740       O  0.78251444  0.54306143  0.46244033    -0.79300
Co2741     Co  0.83802865  0.95174235  0.49972153     1.51500
Co2742     Co  0.78856295  0.56143083  0.50498112     1.51700
Co2743     Co  0.81504639  0.50351249  0.47613337     1.51600
Co2744     Co  0.83243713  0.50247164  0.52912866     1.51500
O2745       O  0.80600309  0.50537293  0.50374265    -1.41200
C2746       C  0.79747111  0.93242666  0.53438282     1.10300
C2747       C  0.75401539  0.55724070  0.46940670     1.10400
C2748       C  0.77501022  0.93444825  0.47345175     1.10400
C2749       C  0.77147722  0.54877036  0.54193770     1.10300
N2750       N  0.93565692  0.76186215  0.63797510    -0.35800
N2751       N  0.92013674  0.81635321  0.60899967    -0.56300
N2752       N  0.92602437  0.75810951  0.57959815    -0.35800
N2753       N  0.94657454  0.70376076  0.60858664    -0.56300
C2754       C  0.93786086  0.79429826  0.64820165     0.27800
C2755       C  0.95290797  0.73467594  0.64845288     0.27800
C2756       C  0.92950355  0.79020104  0.56911126     0.27800
C2757       C  0.93467611  0.72851459  0.56855096     0.27800
C2758       C  0.90897816  0.83628857  0.62400709     0.36400
C2759       C  0.90794433  0.83503333  0.59325818     0.36400
C2760       C  0.95022776  0.68216151  0.62458556     0.36400
C2761       C  0.94165825  0.67943946  0.59380657     0.36400
C2762       C  0.95690219  0.78756957  0.66531515    -0.21000
C2763       C  0.96547306  0.74985063  0.66570855    -0.21000
C2764       C  0.94125883  0.78084758  0.55127201    -0.21000
C2765       C  0.94290704  0.74188315  0.55064302    -0.21000
C2766       C  0.88901391  0.86745436  0.61781143    -0.22100
C2767       C  0.88856315  0.86678390  0.59829994    -0.22100
C2768       C  0.94950006  0.64409175  0.61981848    -0.22100
C2769       C  0.94385981  0.64237422  0.60042168    -0.22100
C2770       C  0.92105654  0.82910717  0.64296815    -0.17500
C2771       C  0.95527252  0.69602042  0.64344987    -0.17500
C2772       C  0.93417500  0.69001529  0.57441156    -0.17400
C2773       C  0.91870751  0.82692434  0.57466366    -0.17400
H2774       H  0.96333734  0.80744889  0.67661396     0.15500
H2775       H  0.97919180  0.73548924  0.67757763     0.15500
H2776       H  0.94652762  0.79992483  0.53955738     0.15500
H2777       H  0.94983897  0.72589404  0.53834080     0.15500
H2778       H  0.87757686  0.88930562  0.62643709     0.13700
H2779       H  0.87652826  0.88794051  0.58886192     0.13700
H2780       H  0.95231737  0.61993681  0.62933385     0.13700
H2781       H  0.94147648  0.61670863  0.59212649     0.13700
H2782       H  0.91956987  0.75712766  0.62568026     0.27000
H2783       H  0.91414678  0.75592243  0.59274384     0.27000
N2784       N  0.73916074  0.74460333  0.59205036    -0.35800
N2785       N  0.72463819  0.68662133  0.62160338    -0.56300
N2786       N  0.70975230  0.74462875  0.64741554    -0.35800
N2787       N  0.72569089  0.80318555  0.61897264    -0.56300
C2788       C  0.75302842  0.71275461  0.58463138     0.27800
C2789       C  0.75467566  0.77490668  0.58336437     0.27800
C2790       C  0.70988462  0.71463621  0.65954714     0.27800
C2791       C  0.71021809  0.77619469  0.65798505     0.27800
C2792       C  0.72238289  0.66624102  0.60552489     0.36400
C2793       C  0.70883620  0.66518121  0.63504112     0.36400
C2794       C  0.72659737  0.82410378  0.60277629     0.36400
C2795       C  0.70783005  0.82394295  0.63167324     0.36400
C2796       C  0.77753400  0.72275882  0.57087008    -0.21000
C2797       C  0.77871960  0.76200082  0.57013239    -0.21000
C2798       C  0.71072843  0.72733184  0.67812891    -0.21000
C2799       C  0.71122003  0.76628263  0.67715949    -0.21000
C2800       C  0.70496947  0.63177495  0.60874928    -0.22100
C2801       C  0.69765213  0.63053682  0.62759258    -0.22100
C2802       C  0.70961195  0.85858890  0.60529193    -0.22100
C2803       C  0.69759236  0.85842759  0.62360733    -0.22100
C2804       C  0.74161809  0.67523953  0.58911971    -0.17500
C2805       C  0.74568531  0.81356057  0.58649330    -0.17500
C2806       C  0.70241800  0.81276174  0.65072630    -0.17400
C2807       C  0.70447050  0.67668271  0.65395561    -0.17400
H2808       H  0.79261734  0.70376715  0.56212871     0.15500
H2809       H  0.79500348  0.77904106  0.56074011     0.15500
H2810       H  0.70940326  0.71046943  0.69100155     0.15500
H2811       H  0.71012193  0.78516109  0.68916844     0.15500
H2812       H  0.69971798  0.60899054  0.59877379     0.13700
H2813       H  0.68527216  0.60678124  0.63479685     0.13700
H2814       H  0.70663477  0.88157408  0.59507076     0.13700
H2815       H  0.68348326  0.88127202  0.63031619     0.13700
H2816       H  0.71723572  0.74529337  0.60103377     0.27000
H2817       H  0.70282267  0.74405602  0.63295173     0.27000
C2818       C  0.97904830  0.58522739  0.29685942     0.43300
N2819       N  0.50989919  0.57084889  0.27315285     0.02200
C2820       C  0.50967146  0.91892058  0.21389920    -0.05700
H2821       H  0.53876600  0.88326879  0.28542261     0.07700
C2822       C  0.64413145  0.97054663  0.28924824    -0.06000
Co2823     Co  0.98869993  0.00022937  0.25521651     0.74200
N2824       N  0.52071148  0.93387864  0.27052221    -0.25200
Co2825     Co  0.55944141  0.94227247  0.25003612     0.74100
C2826       C  0.63575050  0.93224132  0.29582857     0.43400
N2827       N  0.61801969  0.56499886  0.27144458     0.01800
N2828       N  0.60041107  0.94532930  0.27169240     0.01900
N2829       N  0.96318313  0.95289712  0.22228866    -0.46100
H2830       H  0.94884490  0.52790351  0.29403129     0.07700
N2831       N  0.49237063  0.95640551  0.27229067     0.02200
N2832       N  0.60001740  0.95221646  0.23016330     0.01900
C2833       C  0.64292381  0.94482555  0.21011040     0.43500
N2834       N  0.58901014  0.58713175  0.27048303    -0.24700
C2835       C  0.95129588  0.54391053  0.21950340    -0.05600
N2836       N  0.50480414  0.59423626  0.28745290    -0.45800
N2837       N  0.61122959  0.92968366  0.21653018    -0.46000
C2838       C  0.95744206  0.57766388  0.20821971     0.43300
N2839       N  0.48774896  0.96293677  0.23111601     0.02200
N2840       N  0.58383595  0.58468981  0.22899195    -0.24700
N2841       N  0.49126885  0.53881038  0.27481474    -0.25200
N2842       N  0.61416659  0.56447696  0.23049654     0.01800
H2843       H  0.56460195  0.62567239  0.20775726     0.07700
H2844       H  0.67512211  0.99529980  0.22344258     0.07800
N2845       N  0.51656691  0.94120915  0.22911243    -0.25200
N2846       N  0.62090550  0.97604205  0.27419446    -0.24800
N2847       N  0.50109121  0.57010137  0.23096924     0.02200
C2848       C  0.99483061  0.91893453  0.29875371     0.43600
C2849       C  0.59390121  0.61485938  0.28317849    -0.06100
N2850       N  0.62262346  0.98097067  0.23319314    -0.24800
H2851       H  0.66497229  0.99025993  0.29444578     0.07700
N2852       N  0.97814675  0.94880799  0.29009274    -0.46100
H2853       H  0.57477387  0.63732668  0.28570572     0.07700
C2854       C  0.62115987  0.59744537  0.20525746     0.43400
C2855       C  0.96884256  0.54816971  0.28916692    -0.05600
Co2856     Co  0.54561988  0.57932724  0.25062910     0.73800
N2857       N  0.64333552  0.57649876  0.28423264    -0.45800
C2858       C  0.97145885  0.92294025  0.21171848     0.43700
N2859       N  0.48862885  0.59158736  0.21642206    -0.45800
Co2860     Co  0.62369371  0.52336528  0.25112905     0.73900
C2861       C  0.65055249  0.97837352  0.22170092    -0.06100
C2862       C  0.51946873  0.90621777  0.28357314    -0.05700
N2863       N  0.48065417  0.53955715  0.23328289    -0.25200
N2864       N  0.60832553  0.91848969  0.28441344    -0.46000
H2865       H  0.52801406  0.89767570  0.20888041     0.07700
C2866       C  0.58555048  0.60644937  0.21314154    -0.06100
Cl2867     Cl  0.55036135  0.01091296  0.25261975    -0.49100
C2868       C  0.62995618  0.60801338  0.29208188     0.43500
H2869       H  0.92927310  0.52336639  0.21825338     0.07700
N2870       N  0.63673340  0.57116987  0.21673490    -0.45800
O2871       O  0.96514105  0.71969712  0.98519661    -0.79300
O2872       O  0.60953803  0.72387677  0.01698701    -0.79300
O2873       O  0.59362249  0.70883802  0.97797394    -0.79300
O2874       O  0.49599302  0.69291744  0.03163632    -0.79300
O2875       O  0.62797721  0.75899074  0.98749003    -0.79400
O2876       O  0.95399036  0.73359021  0.02247444    -0.79300
O2877       O  0.56721929  0.68752286  0.02752610    -0.79300
O2878       O  0.50836966  0.68139926  0.97684358    -0.79300
C2879       C  0.47491168  0.69077081  0.97535641     1.10400
C2880       C  0.60030877  0.69446669  0.02584183     1.10300
C2881       C  0.62443087  0.72840398  0.97793779     1.10400
C2882       C  0.96201067  0.70419660  0.03187182     1.10300
O2883       O  0.98386262  0.80611421  0.02192190    -0.79300
O2884       O  0.56956177  0.80106682  0.97967216    -0.79400
O2885       O  0.50473605  0.75677232  0.96263275    -0.79300
O2886       O  0.58071372  0.76535028  0.04248664    -0.79300
O2887       O  0.59798188  0.80057642  0.01813486    -0.79300
O2888       O  0.99411848  0.79837685  0.98298059    -0.79300
O2889       O  0.50376800  0.76880362  0.04537164    -0.79300
O2890       O  0.55979211  0.75413499  0.96064012    -0.79300
Co2891     Co  0.47794905  0.76464344  0.00233341     1.51500
Co2892     Co  0.58311467  0.76131765  0.99941012     1.51700
Co2893     Co  0.53911524  0.72615558  0.98142859     1.51600
Co2894     Co  0.53700455  0.73006794  0.03473901     1.51500
O2895       O  0.53204891  0.75012726  0.00739619    -1.41200
C2896       C  0.98358305  0.79798930  0.03960651     1.10300
C2897       C  0.57107858  0.78755180  0.96292718     1.10400
C2898       C  0.48918932  0.78825441  0.96609301     1.10400
C2899       C  0.60084084  0.79204813  0.03573404     1.10300
N2900       N  0.76350151  0.78207181  0.86655591    -0.35800
N2901       N  0.82009979  0.78190989  0.89683704    -0.56300
N2902       N  0.86225341  0.83574974  0.87575862    -0.35800
N2903       N  0.80269538  0.84196189  0.84738410    -0.56300
C2904       C  0.74889362  0.75696746  0.87876013     0.27800
C2905       C  0.73566293  0.79608684  0.85533856     0.27800
C2906       C  0.88193339  0.83692493  0.89249730     0.27800
C2907       C  0.87560154  0.86317817  0.86437400     0.27800
C2908       C  0.79772534  0.75480532  0.90369077     0.36400
C2909       C  0.84792852  0.78650133  0.90996027     0.36400
C2910       C  0.77306191  0.83887998  0.83535859     0.36400
C2911       C  0.82898274  0.85970341  0.83761715     0.36400
C2912       C  0.71148053  0.75420333  0.87502553    -0.21000
C2913       C  0.70299515  0.77922216  0.86037874    -0.21000
C2914       C  0.90798665  0.86576323  0.89164221    -0.21000
C2915       C  0.90438889  0.88184677  0.87377054    -0.21000
C2916       C  0.80949314  0.74485730  0.92185597    -0.22100
C2917       C  0.84210583  0.76317011  0.92554038    -0.22100
C2918       C  0.78012512  0.85608642  0.81808330    -0.22100
C2919       C  0.81585928  0.86835674  0.81934521    -0.22100
C2920       C  0.76886202  0.73646060  0.89311363    -0.17500
C2921       C  0.73928612  0.82210752  0.84005030    -0.17500
C2922       C  0.86399429  0.87000171  0.84526072    -0.17400
C2923       C  0.87831102  0.81159059  0.90816843    -0.17400
H2924       H  0.69226495  0.73664151  0.88236211     0.15500
H2925       H  0.67596472  0.78391149  0.85395068     0.15500
H2926       H  0.92800791  0.87399337  0.90263788     0.15500
H2927       H  0.92093186  0.90477256  0.86831952     0.15500
H2928       H  0.79552334  0.72622248  0.93134865     0.13700
H2929       H  0.85902770  0.75967784  0.93838474     0.13700
H2930       H  0.76186420  0.85899920  0.80568265     0.13700
H2931       H  0.83014558  0.88283736  0.80819759     0.13700
H2932       H  0.79101748  0.78589049  0.86484732     0.27000
H2933       H  0.84453231  0.81477710  0.87127891     0.27000
N2934       N  0.82362531  0.64069758  0.84791199    -0.35800
N2935       N  0.87463335  0.63832983  0.88102786    -0.56300
N2936       N  0.81980081  0.67240859  0.90327017    -0.35800
N2937       N  0.75940307  0.67427156  0.86573822    -0.56300
C2938       C  0.85526853  0.63564224  0.83889974     0.27800
C2939       C  0.79580253  0.63710775  0.83470136     0.27800
C2940       C  0.83659683  0.64651450  0.91464773     0.27800
C2941       C  0.78406168  0.67211230  0.90718528     0.27800
C2942       C  0.89942171  0.63960100  0.86728165     0.36400
C2943       C  0.89279792  0.64387756  0.89803173     0.36400
C2944       C  0.74582382  0.64399067  0.85644204     0.36400
C2945       C  0.74221995  0.67545223  0.88224900     0.36400
C2946       C  0.84704510  0.63018080  0.81959958    -0.21000
C2947       C  0.80967662  0.63164797  0.81695516    -0.21000
C2948       C  0.81083939  0.62763469  0.92528647    -0.21000
C2949       C  0.77710466  0.64359853  0.92025379    -0.21000
C2950       C  0.93398942  0.64591362  0.87555623    -0.22100
C2951       C  0.92975104  0.64947703  0.89492865    -0.22100
C2952       C  0.71880491  0.62623258  0.86658860    -0.22100
C2953       C  0.71783564  0.64533451  0.88358513    -0.22100
C2954       C  0.89130680  0.63446689  0.84745795    -0.17500
C2955       C  0.75859841  0.63265545  0.83898135    -0.17500
C2956       C  0.75833857  0.69536864  0.89741810    -0.17400
C2957       C  0.87498359  0.64289932  0.91583362    -0.17400
H2958       H  0.86574643  0.62435573  0.80848952     0.15500
H2959       H  0.79440500  0.62697050  0.80365847     0.15500
H2960       H  0.81599804  0.60543377  0.93574127     0.15500
H2961       H  0.75088151  0.63601067  0.92588405     0.15500
H2962       H  0.95947636  0.64864014  0.86832292     0.13700
H2963       H  0.95149138  0.65588655  0.90531888     0.13700
H2964       H  0.70396170  0.60051164  0.86282491     0.13700
H2965       H  0.70277423  0.63692248  0.89587897     0.13700
H2966       H  0.82036820  0.64339523  0.86243622     0.27000
H2967       H  0.83241554  0.69065647  0.89370417     0.27000
C2968       C  0.96335644  0.91788617  0.70509415     0.43300
N2969       N  0.98546422  0.95903718  0.72495419     0.02200
C2970       C  0.65750963  0.54035095  0.72033360    -0.05700
H2971       H  0.67066716  0.90770869  0.73377260     0.07700
C2972       C  0.59622103  0.92092674  0.79803043    -0.06000
Co2973     Co  0.55972263  0.98680995  0.71462415     0.74200
N2974       N  0.62098247  0.94006109  0.73049410    -0.25200
Co2975     Co  0.62591376  0.98297636  0.75043090     0.74100
C2976       C  0.62888706  0.89948378  0.79343181     0.43400
N2977       N  0.51162831  0.96050792  0.78248800     0.01800
N2978       N  0.61962648  0.94417024  0.77270936     0.01900
N2979       N  0.61291627  0.53929495  0.69731045    -0.46100
H2980       H  0.52206016  0.91567553  0.69184070     0.07700
N2981       N  0.59503675  0.94156872  0.71695098     0.02200
N2982       N  0.63138450  0.52327235  0.76724006     0.01900
C2983       C  0.65381933  0.56733744  0.78490174     0.43500
N2984       N  0.98638124  0.96239204  0.76744885    -0.24700
C2985       C  0.52360459  0.55321613  0.69538112    -0.05600
N2986       N  0.95488876  0.94042124  0.71978225    -0.45800
N2987       N  0.66067632  0.54506619  0.77001109    -0.46000
C2988       C  0.99061316  0.58200308  0.70032517     0.43300
N2989       N  0.60509678  0.51635997  0.71150758     0.02200
N2990       N  0.99719849  0.54428135  0.76522812    -0.24700
N2991       N  0.51470672  0.95142098  0.71572231    -0.25200
N2992       N  0.52603937  0.54178954  0.77828558     0.01800
H2993       H  0.94648870  0.57513304  0.76501750     0.07700
H2994       H  0.60430605  0.56554989  0.80402363     0.07800
N2995       N  0.63079621  0.51605634  0.72515193    -0.25200
N2996       N  0.59306095  0.94813871  0.78465612    -0.24800
N2997       N  0.99603343  0.53899791  0.72181874     0.02200
C2998       C  0.63087577  0.89814444  0.70791177     0.43600
C2999       C  0.95626151  0.94342340  0.77234585    -0.06100
N3000       N  0.60604638  0.52938178  0.77963257    -0.24800
H3001       H  0.57898502  0.91799244  0.81009661     0.07700
N3002       N  0.60005741  0.91726161  0.70319305    -0.46100
H3003       H  0.92965888  0.94515722  0.76506072     0.07700
C3004       C  0.98902673  0.58375597  0.78965240     0.43400
C3005       C  0.50553273  0.92420573  0.70346008    -0.05600
Co3006     Co  0.99244394  0.00151033  0.74559746     0.73800
N3007       N  0.50055871  0.93943160  0.79682681    -0.45800
C3008       C  0.64576566  0.55567538  0.70145721     0.43700
N3009       N  0.97692387  0.56976551  0.71693249    -0.45800
Co3010     Co  0.55841085  0.99495956  0.78293001     0.73900
C3011       C  0.61764193  0.55697192  0.79132200    -0.06100
C3012       C  0.64486607  0.91307937  0.72617810    -0.05700
N3013       N  0.52511511  0.52861384  0.70980454    -0.25200
N3014       N  0.64165670  0.91566119  0.77746507    -0.46000
H3015       H  0.68139124  0.54666725  0.72929949     0.07700
C3016       C  0.97378954  0.57065789  0.77111914    -0.06100
Cl3017     Cl  0.55887986  0.99164578  0.74864079    -0.49100
C3018       C  0.96615126  0.92624072  0.79073833     0.43500
H3019       H  0.53946626  0.55177880  0.68288120     0.07700
N3020       N  0.52259025  0.56692038  0.79190138    -0.45800
N3021       N  0.78332562  0.60491645  0.13943683    -0.35800
N3022       N  0.72722742  0.61368046  0.10882176    -0.56300
N3023       N  0.78354430  0.62528222  0.08105320    -0.35800
N3024       N  0.84004609  0.61898412  0.11212527    -0.56300
C3025       C  0.75297420  0.60424333  0.14985082     0.27800
C3026       C  0.81306412  0.60533321  0.15158413     0.27800
C3027       C  0.75337021  0.63701818  0.07077008     0.27800
C3028       C  0.81335044  0.63785419  0.07198264     0.27800
C3029       C  0.70508922  0.60458904  0.12312261     0.36400
C3030       C  0.70599623  0.61373470  0.09262474     0.36400
C3031       C  0.86210668  0.61397260  0.12788283     0.36400
C3032       C  0.86231429  0.62578753  0.09757143     0.36400
C3033       C  0.76372360  0.60304695  0.16901609    -0.21000
C3034       C  0.80145798  0.60355053  0.17009259    -0.21000
C3035       C  0.76427498  0.65638416  0.05472561    -0.21000
C3036       C  0.80178183  0.65567237  0.05510940    -0.21000
C3037       C  0.66957372  0.59886652  0.11587981    -0.22100
C3038       C  0.67045264  0.60322671  0.09657690    -0.22100
C3039       C  0.89847362  0.61800793  0.12331772    -0.22100
C3040       C  0.89861735  0.62573906  0.10425471    -0.22100
C3041       C  0.71580992  0.60385193  0.14272188    -0.17500
C3042       C  0.85040903  0.60719613  0.14659072    -0.17500
C3043       C  0.85069969  0.63575695  0.07871961    -0.17400
C3044       C  0.71621430  0.63033548  0.07520328    -0.17400
H3045       H  0.74625298  0.60171658  0.18106144     0.15500
H3046       H  0.81834324  0.60302719  0.18309366     0.15500
H3047       H  0.74717281  0.66980608  0.04375259     0.15500
H3048       H  0.81845493  0.66829598  0.04435457     0.15500
H3049       H  0.64510522  0.59309772  0.12356860     0.13700
H3050       H  0.64691543  0.60176074  0.08673924     0.13700
H3051       H  0.92250993  0.61654243  0.13281017     0.13700
H3052       H  0.92289696  0.63164675  0.09641311     0.13700
H3053       H  0.78375764  0.60303634  0.12451128     0.27000
H3054       H  0.78397274  0.60759658  0.09316237     0.27000
N3055       N  0.79908250  0.87470973  0.14587169    -0.35800
N3056       N  0.74040636  0.86406613  0.11819634    -0.56300
N3057       N  0.79386298  0.85234397  0.08910793    -0.35800
N3058       N  0.85253971  0.86298533  0.11799093    -0.56300
C3059       C  0.76985175  0.87207256  0.15695603     0.27800
C3060       C  0.82929188  0.86711483  0.15692895     0.27800
C3061       C  0.76311730  0.83582829  0.08118951     0.27800
C3062       C  0.82349060  0.83834550  0.08048534     0.27800
C3063       C  0.72244842  0.88254715  0.13170988     0.36400
C3064       C  0.71933993  0.86629194  0.10201728     0.36400
C3065       C  0.87406905  0.87761681  0.13221092     0.36400
C3066       C  0.87100331  0.86733395  0.10191940     0.36400
C3067       C  0.78132717  0.86209541  0.17531897    -0.21000
C3068       C  0.81893458  0.85835067  0.17524733    -0.21000
C3069       C  0.77355781  0.81081740  0.06730476    -0.21000
C3070       C  0.81146012  0.81297750  0.06663397    -0.21000
C3071       C  0.68986918  0.89701055  0.12410605    -0.22100
C3072       C  0.68792271  0.88677759  0.10521235    -0.22100
C3073       C  0.90624029  0.89197377  0.12512836    -0.22100
C3074       C  0.90449575  0.88498405  0.10590263    -0.22100
C3075       C  0.73414642  0.88326156  0.15107426    -0.17500
C3076       C  0.86555511  0.87524754  0.15156349    -0.17500
C3077       C  0.86074153  0.84911006  0.08473207    -0.17400
C3078       C  0.72617918  0.84537317  0.08543932    -0.17400
H3079       H  0.76453041  0.85909163  0.18757167     0.15500
H3080       H  0.83684122  0.85242775  0.18753713     0.15500
H3081       H  0.75571236  0.79338635  0.05829405     0.15500
H3082       H  0.82821753  0.79749305  0.05709550     0.15500
H3083       H  0.66930876  0.91236375  0.13149862     0.13700
H3084       H  0.66542164  0.89253705  0.09513954     0.13700
H3085       H  0.92900280  0.90498373  0.13303218     0.13700
H3086       H  0.92586658  0.89099932  0.09607154     0.13700
H3087       H  0.79882260  0.88752852  0.13247604     0.27000
H3088       H  0.79451416  0.87463175  0.09873896     0.27000
C3089       C  0.68237484  0.58465606  0.79745838    -0.04500
C3090       C  0.71375255  0.56394167  0.80357425    -0.01600
C3091       C  0.73789292  0.57888624  0.81772543     0.03400
C3092       C  0.73214784  0.61562683  0.82483444    -0.04500
C3093       C  0.70155366  0.63685188  0.81810496    -0.01600
C3094       C  0.67641826  0.62108696  0.80471511     0.03400
C3095       C  0.72114106  0.52703808  0.79566321     0.38000
C3096       C  0.69608057  0.67517126  0.82475853     0.38000
C3097       C  0.64467537  0.64273424  0.79808568     0.36400
C3098       C  0.76835142  0.55620078  0.82514380     0.36400
N3099       N  0.61935274  0.65992861  0.79279307    -0.38400
N3100       N  0.79286920  0.53835930  0.83093852    -0.38400
N3101       N  0.69165412  0.70564344  0.83012305    -0.37800
N3102       N  0.72744836  0.49776092  0.78930834    -0.37800
C3103       C  0.92168468  0.62395799  0.83466453    -0.04500
C3104       C  0.93511976  0.58648698  0.83517064    -0.01600
C3105       C  0.95823348  0.57375890  0.82094544     0.03400
C3106       C  0.96692891  0.59787560  0.80551750    -0.04500
C3107       C  0.95467092  0.63569295  0.80538509    -0.01600
C3108       C  0.93255416  0.64883101  0.81998418     0.03400
C3109       C  0.92334645  0.56022011  0.84974663     0.38000
C3110       C  0.96503044  0.66116438  0.79020302     0.38000
C3111       C  0.91880857  0.68723039  0.81917214     0.36400
C3112       C  0.97229395  0.53543473  0.82209710     0.36400
N3113       N  0.90736835  0.71769500  0.81829351    -0.38400
N3114       N  0.98368590  0.50495319  0.82324319    -0.38400
N3115       N  0.97351612  0.68139936  0.77809046    -0.37800
N3116       N  0.91377531  0.53927330  0.86131814    -0.37800
C3117       C  0.70561843  0.83591804  0.82935881    -0.04500
C3118       C  0.68501736  0.86505690  0.83723920    -0.01600
C3119       C  0.65818317  0.88439607  0.82598996     0.03400
C3120       C  0.65220368  0.87517195  0.80649632    -0.04500
C3121       C  0.67106389  0.84395608  0.79908747    -0.01600
C3122       C  0.69689901  0.82376409  0.81066658     0.03400
C3123       C  0.69251768  0.87610447  0.85686778     0.38000
C3124       C  0.66457247  0.83303891  0.77939111     0.38000
C3125       C  0.71555834  0.79128691  0.80322450     0.36400
C3126       C  0.63875039  0.91521048  0.83448251     0.36400
N3127       N  0.73040224  0.76526585  0.79736958    -0.38400
N3128       N  0.62342574  0.93958018  0.84157764    -0.38400
N3129       N  0.65965700  0.82442387  0.76364739    -0.37800
N3130       N  0.69847637  0.88468236  0.87253974    -0.37800
C3131       C  0.89127267  0.88604870  0.83212255    -0.04500
C3132       C  0.91869626  0.86207501  0.82551782    -0.01600
C3133       C  0.94327364  0.87550832  0.81209208     0.03400
C3134       C  0.94037111  0.91287569  0.80502845    -0.04500
C3135       C  0.91340624  0.93726531  0.81187983    -0.01600
C3136       C  0.88897014  0.92387254  0.82549464     0.03400
C3137       C  0.92111127  0.82322176  0.83234495     0.38000
C3138       C  0.91115651  0.97624941  0.80519821     0.38000
C3139       C  0.86130986  0.94877835  0.83257281     0.36400
C3140       C  0.97101369  0.85051814  0.80514035     0.36400
N3141       N  0.83918465  0.96867293  0.83814651    -0.38400
N3142       N  0.48472974  0.82891091  0.79792074    -0.38400
N3143       N  0.90931791  0.00733027  0.79985843    -0.37800
N3144       N  0.92285318  0.79236427  0.83798071    -0.37800
C3145       C  0.62784019  0.67425547  0.03811389    -0.04500
C3146       C  0.65417939  0.65031550  0.03057989    -0.01600
C3147       C  0.68131319  0.63350881  0.04284306     0.03400
C3148       C  0.68589932  0.64551458  0.06202191    -0.04500
C3149       C  0.66040217  0.67151970  0.06903927    -0.01600
C3150       C  0.62948009  0.68196336  0.05776113     0.03400
C3151       C  0.65270181  0.64232302  0.01039696     0.38000
C3152       C  0.66574899  0.68795561  0.08783312     0.38000
C3153       C  0.59846957  0.69863624  0.06672548     0.36400
C3154       C  0.70413611  0.60380045  0.03576841     0.36400
N3155       N  0.57320712  0.71033459  0.07408015    -0.38400
N3156       N  0.72231895  0.58001155  0.03013567    -0.38400
N3157       N  0.66973595  0.70109604  0.10280356    -0.37800
N3158       N  0.65154947  0.63622329  0.99424505    -0.37800
C3159       C  0.93249371  0.68493495  0.04265875    -0.04500
C3160       C  0.90305901  0.70670694  0.04933894    -0.01600
C3161       C  0.87971850  0.69129956  0.06273662     0.03400
C3162       C  0.87930523  0.65202215  0.06624095    -0.04500
C3163       C  0.90615814  0.62907388  0.05826916    -0.01600
C3164       C  0.93396896  0.64581569  0.04744043     0.03400
C3165       C  0.89442718  0.74403729  0.04173442     0.38000
C3166       C  0.90586821  0.58852745  0.06183333     0.38000
C3167       C  0.96324861  0.62242918  0.04085114     0.36400
C3168       C  0.85583110  0.71584469  0.07303863     0.36400
N3169       N  0.49395080  0.60418766  0.03713084    -0.34600
N3170       N  0.83668874  0.73456685  0.08161090    -0.38400
N3171       N  0.90568493  0.55621576  0.06481576    -0.37800
N3172       N  0.88626034  0.77307297  0.03515317    -0.37800
C3173       C  0.63109699  0.81024327  0.04842907    -0.04500
C3174       C  0.63049998  0.80694877  0.06854032    -0.01600
C3175       C  0.66221307  0.81503586  0.08023093     0.03400
C3176       C  0.69344613  0.83308511  0.07260609    -0.04500
C3177       C  0.69209644  0.84143967  0.05289076    -0.01600
C3178       C  0.66272959  0.82787939  0.04079395     0.03400
C3179       C  0.59644454  0.79802433  0.07754252     0.38000
C3180       C  0.72062752  0.86501058  0.04501447     0.38000
C3181       C  0.66660351  0.83131583  0.02045881     0.36400
C3182       C  0.66233742  0.80431409  0.10020853     0.36400
N3183       N  0.67101527  0.83404325  0.00431700    -0.38400
N3184       N  0.66216334  0.79594746  0.11615266    -0.38400
N3185       N  0.74344120  0.88393789  0.03890538    -0.37800
N3186       N  0.56912663  0.79205138  0.08483498    -0.37800
C3187       C  0.95552506  0.81553275  0.05243287    -0.04500
C3188       C  0.93241658  0.84584830  0.04598706    -0.01600
C3189       C  0.90077476  0.85572041  0.05600429     0.03400
C3190       C  0.89175059  0.83621214  0.07278590    -0.04500
C3191       C  0.91562189  0.80774726  0.07994767    -0.01600
C3192       C  0.94717698  0.79768036  0.07014057     0.03400
C3193       C  0.94084870  0.86734701  0.02906104     0.38000
C3194       C  0.90738437  0.78829121  0.09759494     0.38000
C3195       C  0.96984145  0.76766481  0.07842232     0.36400
C3196       C  0.87736369  0.88629288  0.04912305     0.36400
N3197       N  0.98747174  0.74353214  0.08514334    -0.38400
N3198       N  0.85847746  0.91060827  0.04371424    -0.38400
N3199       N  0.90081452  0.77286447  0.11165107    -0.37800
N3200       N  0.94737762  0.88474876  0.01557760    -0.37800
C3201       C  0.59215231  0.80384544  0.94711686    -0.04500
C3202       C  0.62286970  0.82733218  0.95110572    -0.01600
C3203       C  0.65469763  0.82208370  0.94056961     0.03400
C3204       C  0.65517991  0.79238023  0.92703713    -0.04500
C3205       C  0.62083453  0.78667878  0.91768736    -0.01600
C3206       C  0.59003614  0.78568764  0.92897930     0.03400
C3207       C  0.62215803  0.85504455  0.96612079     0.38000
C3208       C  0.61800685  0.77649533  0.89782459     0.38000
C3209       C  0.55916865  0.76177320  0.92292860     0.36400
C3210       C  0.68612523  0.84678139  0.94335638     0.36400
N3211       N  0.53494123  0.74199149  0.91842368    -0.38400
N3212       N  0.71095892  0.86707346  0.94558413    -0.38400
N3213       N  0.61472968  0.76868282  0.88189969    -0.37800
N3214       N  0.62107663  0.87753844  0.97795946    -0.37800
C3215       C  0.90850736  0.81091195  0.92342746    -0.04500
C3216       C  0.94477443  0.80194722  0.91885783    -0.01600
C3217       C  0.97292116  0.80315804  0.93301690     0.03400
C3218       C  0.96433350  0.80110371  0.95222926    -0.04500
C3219       C  0.92833821  0.81102296  0.95709547    -0.01600
C3220       C  0.90165318  0.81956912  0.94256825     0.03400
C3221       C  0.95381326  0.79164993  0.89972083     0.38000
C3222       C  0.91808622  0.81132021  0.97678127     0.38000
C3223       C  0.86705433  0.83624830  0.94729352     0.36400
C3224       C  0.50561789  0.82653701  0.92819120     0.36400
N3225       N  0.83948532  0.84977164  0.95095385    -0.38400
N3226       N  0.53167759  0.84280451  0.92389318    -0.38400
N3227       N  0.90948325  0.81134962  0.99243175    -0.37800
N3228       N  0.96128589  0.78303575  0.88453294    -0.37800
C3229       C  0.67714959  0.75654052  0.93221344    -0.04500
C3230       C  0.65853571  0.72115517  0.93016712    -0.01600
C3231       C  0.64354399  0.70456440  0.94647742     0.03400
C3232       C  0.65352260  0.71993047  0.96442284    -0.04500
C3233       C  0.68662078  0.74118516  0.96567472    -0.01600
C3234       C  0.69990503  0.75777771  0.94891018     0.03400
C3235       C  0.65193216  0.70413604  0.91171910     0.38000
C3236       C  0.70471808  0.74820273  0.98400244     0.38000
C3237       C  0.73427366  0.77832075  0.94905299     0.36400
C3238       C  0.61683663  0.67419606  0.94461093     0.36400
N3239       N  0.76188688  0.79467100  0.94933088    -0.38400
N3240       N  0.59555912  0.64986630  0.94291542    -0.38400
N3241       N  0.71900353  0.75374384  0.99871489    -0.37800
N3242       N  0.64595707  0.68954959  0.89723469    -0.37800
C3243       C  0.94720349  0.66658565  0.96532637    -0.04500
C3244       C  0.90986628  0.67687265  0.96565730    -0.01600
C3245       C  0.88483542  0.66689671  0.95062501     0.03400
C3246       C  0.89617386  0.64457149  0.93511070    -0.04500
C3247       C  0.93005737  0.62576895  0.93790346    -0.01600
C3248       C  0.95652571  0.63856450  0.95188851     0.03400
C3249       C  0.89649736  0.69764620  0.98173381     0.38000
C3250       C  0.93648624  0.59170845  0.92711166     0.38000
C3251       C  0.49419634  0.62556332  0.94989971     0.36400
C3252       C  0.84714580  0.67747074  0.95295166     0.36400
N3253       N  0.52263792  0.61129349  0.95052526    -0.38400
N3254       N  0.81772604  0.68527314  0.95690516    -0.38400
N3255       N  0.94077639  0.56428064  0.91858995    -0.37800
N3256       N  0.88582805  0.71429059  0.99445424    -0.37800
C3257       C  0.89371656  0.88631962  0.16673455    -0.04500
C3258       C  0.88589203  0.91623223  0.17897825    -0.01600
C3259       C  0.90890494  0.92379507  0.19492927     0.03400
C3260       C  0.94459582  0.90758789  0.19678311    -0.04500
C3261       C  0.95358843  0.87898517  0.18370001    -0.01600
C3262       C  0.92747314  0.86713537  0.16940461     0.03400
C3263       C  0.85420183  0.94013908  0.17505349     0.38000
C3264       C  0.47369696  0.84761981  0.19817603     0.38000
C3265       C  0.93564811  0.83543278  0.15732858     0.36400
C3266       C  0.89383936  0.94685651  0.20970425     0.36400
N3267       N  0.94255159  0.81029723  0.14767655    -0.38400
N3268       N  0.88101581  0.96472555  0.22140746    -0.38400
N3269       N  0.49492997  0.82770073  0.20563340    -0.37800
N3270       N  0.82915080  0.95943028  0.17203349    -0.37800
C3271       C  0.70961284  0.89889092  0.16559458    -0.04500
C3272       C  0.68415895  0.87554818  0.17472961    -0.01600
C3273       C  0.66244606  0.89030457  0.18914648     0.03400
C3274       C  0.66599357  0.92894063  0.19468412    -0.04500
C3275       C  0.69208146  0.95211661  0.18527495    -0.01600
C3276       C  0.71301023  0.93723258  0.17068473     0.03400
C3277       C  0.68064429  0.83606976  0.16931668     0.38000
C3278       C  0.69886526  0.99131895  0.19039690     0.38000
C3279       C  0.73790536  0.96178528  0.16055198     0.36400
C3280       C  0.63771405  0.86481255  0.19870213     0.36400
N3281       N  0.75722853  0.98167529  0.15237414    -0.38400
N3282       N  0.61815827  0.84419532  0.20628868    -0.38400
N3283       N  0.70588474  0.02241004  0.19433448    -0.37800
N3284       N  0.67793921  0.80460297  0.16492512    -0.37800
C3285       C  0.93492904  0.58824759  0.19086699    -0.04500
C3286       C  0.91735124  0.62371607  0.18935268    -0.01600
C3287       C  0.89062607  0.63048619  0.17456701     0.03400
C3288       C  0.87973691  0.60109010  0.16193893    -0.04500
C3289       C  0.89812882  0.56605916  0.16314813    -0.01600
C3290       C  0.92631685  0.56013596  0.17712041     0.03400
C3291       C  0.92518772  0.65241879  0.20359934     0.38000
C3292       C  0.88790554  0.53594091  0.14998854     0.38000
C3293       C  0.94704576  0.52520878  0.17708879     0.36400
C3294       C  0.87422081  0.66760454  0.17233710     0.36400
N3295       N  0.95679414  0.99714340  0.17803604    -0.38400
N3296       N  0.86130343  0.69731053  0.17044934    -0.38400
N3297       N  0.87976874  0.51194474  0.13948512    -0.37800
N3298       N  0.93122677  0.67517898  0.21508267    -0.37800
C3299       C  0.63498599  0.60379878  0.18603071    -0.04500
C3300       C  0.65512402  0.63703728  0.18223178    -0.01600
C3301       C  0.68027337  0.63753730  0.16750705     0.03400
C3302       C  0.68603281  0.60441576  0.15682335    -0.04500
C3303       C  0.66368834  0.57212010  0.15971215    -0.01600
C3304       C  0.63775402  0.57217967  0.17400731     0.03400
C3305       C  0.65170016  0.66986327  0.19427658     0.38000
C3306       C  0.66825578  0.53826427  0.14849337     0.38000
C3307       C  0.61516277  0.53881061  0.17710857     0.36400
C3308       C  0.70157365  0.67157707  0.16393340     0.36400
N3309       N  0.59705433  0.51230008  0.17960685    -0.38400
N3310       N  0.71880801  0.69857809  0.16112531    -0.38400
N3311       N  0.67150005  0.51138116  0.13942186    -0.37800
N3312       N  0.64899959  0.69608818  0.20387513    -0.37800
C3313       C  0.66212610  0.58655743  0.68939817    -0.04500
C3314       C  0.69865439  0.60018466  0.69264343    -0.01600
C3315       C  0.71228653  0.63044382  0.68150859     0.03400
C3316       C  0.68937904  0.64845918  0.66764821    -0.04500
C3317       C  0.65306852  0.63560755  0.66463327    -0.01600
C3318       C  0.64080527  0.60291544  0.67405558     0.03400
C3319       C  0.72390245  0.58119679  0.70590082     0.38000
C3320       C  0.62949975  0.65377131  0.65014641     0.38000
C3321       C  0.60853663  0.58409145  0.66581011     0.36400
C3322       C  0.75033763  0.64235567  0.68382211     0.36400
N3323       N  0.58367631  0.56936048  0.65819290    -0.38400
N3324       N  0.78063135  0.65203069  0.68561374    -0.38400
N3325       N  0.61144620  0.66768144  0.63816929    -0.37800
N3326       N  0.74496926  0.56641201  0.71616916    -0.37800
C3327       C  0.68349384  0.83842064  0.66370026    -0.04500
C3328       C  0.70340803  0.86626928  0.67405596    -0.01600
C3329       C  0.68715132  0.88493866  0.68920040     0.03400
C3330       C  0.65033375  0.87657739  0.69351581    -0.04500
C3331       C  0.63014533  0.84959756  0.68257192    -0.01600
C3332       C  0.64677144  0.83034279  0.66788095     0.03400
C3333       C  0.74077333  0.87516554  0.66921226     0.38000
C3334       C  0.59238100  0.84071241  0.68678621     0.38000
C3335       C  0.62650297  0.80103782  0.65746290     0.36400
C3336       C  0.70843533  0.91280831  0.70002102     0.36400
N3337       N  0.61055565  0.77740341  0.64927383    -0.38400
N3338       N  0.72590145  0.93470412  0.70864987    -0.38400
N3339       N  0.56227701  0.83380848  0.69014266    -0.37800
N3340       N  0.77044116  0.88234880  0.66514768    -0.37800
C3341       C  0.96362486  0.66830912  0.65920471    -0.04500
C3342       C  0.93525968  0.64588475  0.66670172    -0.01600
C3343       C  0.94333829  0.61898545  0.68121850     0.03400
C3344       C  0.97957617  0.61539156  0.68868895    -0.04500
C3345       C  0.00726437  0.63999605  0.68224462    -0.01600
C3346       C  0.99957861  0.66556678  0.66720889     0.03400
C3347       C  0.89791937  0.65003650  0.65916810     0.38000
C3348       C  0.54608529  0.63742673  0.69069418     0.38000
C3349       C  0.53027988  0.68818095  0.65973926     0.36400
C3350       C  0.91482745  0.59375720  0.68771587     0.36400
N3351       N  0.55230603  0.70923894  0.65462432    -0.38400
N3352       N  0.89207710  0.57355409  0.69285542    -0.38400
N3353       N  0.57465401  0.63795887  0.69844236    -0.37800
N3354       N  0.86817657  0.65340457  0.65310135    -0.37800
C3355       C  0.91974754  0.85988199  0.65769839    -0.04500
C3356       C  0.93903772  0.89450865  0.65531378    -0.01600
C3357       C  0.94477287  0.91905637  0.67078812     0.03400
C3358       C  0.93761091  0.90617079  0.68928790    -0.04500
C3359       C  0.91404549  0.87482390  0.69145051    -0.01600
C3360       C  0.90358050  0.85268763  0.67540264     0.03400
C3361       C  0.95676172  0.90356119  0.63782527     0.38000
C3362       C  0.90270270  0.86406167  0.71024075     0.38000
C3363       C  0.87886117  0.82068658  0.67741506     0.36400
C3364       C  0.96074823  0.95647332  0.66799316     0.36400
N3365       N  0.85913421  0.79510605  0.67896178    -0.38400
N3366       N  0.97326422  0.98637754  0.66582984    -0.38400
N3367       N  0.89357744  0.85561258  0.72526808    -0.37800
N3368       N  0.97150311  0.91182533  0.62415474    -0.37800
C3369       C  0.88353723  0.60150442  0.53878164    -0.04500
C3370       C  0.91604288  0.61914414  0.53280424    -0.01600
C3371       C  0.93475699  0.64611568  0.54484559     0.03400
C3372       C  0.91751393  0.66039159  0.56108387    -0.04500
C3373       C  0.88405778  0.64347356  0.56608464    -0.01600
C3374       C  0.87143263  0.61061153  0.55686484     0.03400
C3375       C  0.93078409  0.60858831  0.51484622     0.38000
C3376       C  0.86333614  0.65861250  0.58142059     0.38000
C3377       C  0.85810322  0.58039885  0.56867236     0.36400
C3378       C  0.97198160  0.65721106  0.54105968     0.36400
N3379       N  0.85136297  0.55559565  0.57881483    -0.38400
N3380       N  0.00183970  0.66581374  0.53802172    -0.38400
N3381       N  0.84726181  0.67165320  0.59356470    -0.37800
N3382       N  0.94260898  0.60015730  0.50048463    -0.37800
C3383       C  0.91889661  0.85955029  0.56087590    -0.04500
C3384       C  0.93885514  0.89287350  0.56581058    -0.01600
C3385       C  0.92837395  0.92793272  0.55755350     0.03400
C3386       C  0.90406305  0.92824122  0.54150118    -0.04500
C3387       C  0.89407594  0.89324211  0.53311511    -0.01600
C3388       C  0.89657626  0.85982774  0.54403491     0.03400
C3389       C  0.97045090  0.89044193  0.57885541     0.38000
C3390       C  0.88433022  0.89099793  0.51305369     0.38000
C3391       C  0.87457791  0.82715268  0.53834347     0.36400
C3392       C  0.94338673  0.96308443  0.56508543     0.36400
N3393       N  0.85684496  0.80121361  0.53374182    -0.38400
N3394       N  0.95545368  0.99111094  0.57116677    -0.38400
N3395       N  0.87814029  0.88918330  0.49684541    -0.37800
N3396       N  0.99662263  0.88761538  0.58857935    -0.37800
C3397       C  0.74942923  0.64279784  0.57641259    -0.04500
C3398       C  0.73073545  0.64000463  0.55849967    -0.01600
C3399       C  0.73339892  0.60669068  0.54771571     0.03400
C3400       C  0.75452532  0.57584429  0.55497348    -0.04500
C3401       C  0.76693643  0.57634331  0.57407002    -0.01600
C3402       C  0.76794197  0.61054465  0.58410212     0.03400
C3403       C  0.70788885  0.67093333  0.55141403     0.38000
C3404       C  0.77517122  0.54084608  0.58379141     0.38000
C3405       C  0.78661968  0.61181276  0.60270997     0.36400
C3406       C  0.71256856  0.60364158  0.52978517     0.36400
N3407       N  0.80151346  0.61258469  0.61754693    -0.38400
N3408       N  0.69538765  0.60115031  0.51564620    -0.38400
N3409       N  0.78107115  0.51249980  0.59167659    -0.37800
N3410       N  0.68964830  0.69559668  0.54579540    -0.37800
C3411       C  0.75816765  0.84452363  0.57298020    -0.04500
C3412       C  0.74556437  0.84562955  0.55366411    -0.01600
C3413       C  0.75735515  0.87485615  0.54121612     0.03400
C3414       C  0.78164582  0.90378229  0.54786458    -0.04500
C3415       C  0.79349727  0.90316795  0.56729178    -0.01600
C3416       C  0.78192075  0.87391451  0.57968579     0.03400
C3417       C  0.71956412  0.81721076  0.54668166     0.38000
C3418       C  0.81884623  0.93185716  0.57459212     0.38000
C3419       C  0.79438629  0.87420776  0.59953804     0.36400
C3420       C  0.74327903  0.87588748  0.52166799     0.36400
N3421       N  0.80337791  0.87448979  0.61550228    -0.38400
N3422       N  0.73153165  0.87663729  0.50614723    -0.38400
N3423       N  0.83923337  0.95421245  0.58084115    -0.37800
N3424       N  0.69882554  0.79448881  0.54113434    -0.37800
C3425       C  0.64446315  0.62580329  0.30981276    -0.04500
C3426       C  0.62313804  0.62467844  0.32605855    -0.01600
C3427       C  0.63270864  0.64721983  0.34186983     0.03400
C3428       C  0.66447969  0.67008609  0.34175740    -0.04500
C3429       C  0.68744881  0.66918032  0.32610922    -0.01600
C3430       C  0.67738042  0.64706766  0.31007068     0.03400
C3431       C  0.59133367  0.60005328  0.32643475     0.38000
C3432       C  0.72074579  0.69189719  0.32636353     0.38000
C3433       C  0.69994804  0.64754278  0.29358468     0.36400
C3434       C  0.60879669  0.64857995  0.35782182     0.36400
N3435       N  0.71805864  0.64798570  0.28046232    -0.38400
N3436       N  0.58963594  0.65000291  0.37049087    -0.38400
N3437       N  0.74735095  0.70997350  0.32666448    -0.37800
N3438       N  0.56626013  0.57989598  0.32639720    -0.37800
C3439       C  0.65066427  0.91180279  0.31282055    -0.04500
C3440       C  0.67049597  0.87819159  0.31061520    -0.01600
C3441       C  0.67986909  0.85546182  0.32660574     0.03400
C3442       C  0.66489267  0.86319515  0.34444374    -0.04500
C3443       C  0.64575424  0.89761391  0.34663794    -0.01600
C3444       C  0.64125361  0.92307549  0.33112921     0.03400
C3445       C  0.68063509  0.86658693  0.29181224     0.38000
C3446       C  0.62845583  0.90586676  0.36430091     0.38000
C3447       C  0.62606775  0.96040202  0.33384737     0.36400
C3448       C  0.70437324  0.82370733  0.32456461     0.36400
N3449       N  0.61439450  0.99041055  0.33595491    -0.38400
N3450       N  0.72398636  0.79846134  0.32292038    -0.38400
N3451       N  0.61447596  0.91247090  0.37835270    -0.37800
N3452       N  0.68837049  0.85711643  0.27679584    -0.37800
C3453       C  0.70645435  0.65438878  0.43856228    -0.04500
C3454       C  0.69254850  0.61709514  0.43493742    -0.01600
C3455       C  0.70892527  0.58493693  0.44412713     0.03400
C3456       C  0.73421077  0.58980506  0.45962436    -0.04500
C3457       C  0.74089805  0.62715373  0.46612114    -0.01600
C3458       C  0.73065745  0.65884954  0.45470853     0.03400
C3459       C  0.66080300  0.61184013  0.42212917     0.38000
C3460       C  0.75569564  0.63335705  0.48524090     0.38000
C3461       C  0.74586069  0.69553981  0.45987114     0.36400
C3462       C  0.69892919  0.54706235  0.43796244     0.36400
N3463       N  0.75780464  0.72456849  0.46463720    -0.38400
N3464       N  0.69094285  0.51691739  0.43282953    -0.38400
N3465       N  0.76585712  0.63859355  0.50079027    -0.37800
N3466       N  0.63519511  0.60778288  0.41208395    -0.37800
C3467       C  0.75057495  0.90459796  0.46430664    -0.04500
C3468       C  0.76515086  0.86813829  0.46050790    -0.01600
C3469       C  0.74512533  0.84209161  0.44913711     0.03400
C3470       C  0.70898024  0.84987722  0.44279746    -0.04500
C3471       C  0.69291575  0.88451634  0.44789495    -0.01600
C3472       C  0.71375206  0.91201350  0.45836801     0.03400
C3473       C  0.80164770  0.85700947  0.46716777     0.38000
C3474       C  0.65560880  0.89262662  0.44139055     0.38000
C3475       C  0.69704282  0.94760480  0.46317381     0.36400
C3476       C  0.76335132  0.80903383  0.44194706     0.36400
N3477       N  0.68361864  0.97595144  0.46707134    -0.38400
N3478       N  0.77753186  0.78318956  0.43554795    -0.38400
N3479       N  0.62588387  0.89914123  0.43610176    -0.37800
N3480       N  0.83044398  0.84659573  0.47213643    -0.37800
C3481       C  0.94368318  0.64942464  0.34462980    -0.04500
C3482       C  0.93107698  0.65895159  0.32587209    -0.01600
C3483       C  0.94297505  0.63828475  0.31023154     0.03400
C3484       C  0.96351012  0.60496721  0.31325748    -0.04500
C3485       C  0.97088588  0.59192979  0.33205422    -0.01600
C3486       C  0.96316522  0.61523970  0.34764954     0.03400
C3487       C  0.90671474  0.69084986  0.32263518     0.38000
C3488       C  0.98761106  0.55519003  0.33532704     0.38000
C3489       C  0.97758758  0.60525279  0.36650184     0.36400
C3490       C  0.93449290  0.65167062  0.29100586     0.36400
N3491       N  0.98941142  0.59729472  0.38150405    -0.38400
N3492       N  0.92802613  0.66258389  0.27568217    -0.38400
N3493       N  0.00068979  0.52572824  0.33791549    -0.37800
N3494       N  0.88714701  0.71618203  0.32010775    -0.37800
C3495       C  0.96025597  0.84161750  0.34158347    -0.04500
C3496       C  0.99139619  0.86472892  0.34497871    -0.01600
C3497       C  0.00100772  0.89199121  0.33139927     0.03400
C3498       C  0.98026360  0.89554141  0.31416149    -0.04500
C3499       C  0.94850245  0.87315127  0.31093475    -0.01600
C3500       C  0.93848105  0.84611589  0.32467825     0.03400
C3501       C  0.01357285  0.86023557  0.36245017     0.38000
C3502       C  0.92656771  0.87752365  0.29340546     0.38000
C3503       C  0.90586300  0.82296605  0.32147468     0.36400
C3504       C  0.52408203  0.91373061  0.33031944     0.36400
N3505       N  0.87977063  0.80459603  0.31887902    -0.38400
N3506       N  0.54747291  0.93527880  0.33350752    -0.38400
N3507       N  0.90898855  0.88119973  0.27945528    -0.37800
N3508       N  0.52713499  0.85252636  0.37124634    -0.37800
C3509       C  0.87155707  0.60497615  0.46815868    -0.04500
C3510       C  0.90001537  0.59581259  0.45593175    -0.01600
C3511       C  0.91391111  0.62372418  0.44335386     0.03400
C3512       C  0.89662466  0.65958461  0.44117144    -0.04500
C3513       C  0.86913591  0.66854789  0.45392690    -0.01600
C3514       C  0.86074838  0.64336798  0.46873521     0.03400
C3515       C  0.91608276  0.55840631  0.45663675     0.38000
C3516       C  0.84844292  0.70322153  0.45171549     0.38000
C3517       C  0.84578016  0.65877435  0.48575554     0.36400
C3518       C  0.94593983  0.61536234  0.43268462     0.36400
N3519       N  0.83586206  0.67230432  0.49953737    -0.38400
N3520       N  0.97154938  0.60857337  0.42422220    -0.38400
N3521       N  0.83254081  0.73128419  0.44988755    -0.37800
N3522       N  0.92923682  0.52867355  0.45724469    -0.37800
C3523       C  0.89455113  0.85778318  0.43218759    -0.04500
C3524       C  0.91881088  0.87914508  0.44412486    -0.01600
C3525       C  0.90699795  0.91309972  0.45258288     0.03400
C3526       C  0.87122917  0.92724817  0.44845678    -0.04500
C3527       C  0.84780952  0.90679216  0.43554133    -0.01600
C3528       C  0.85882110  0.87170750  0.42817508     0.03400
C3529       C  0.95652532  0.86712930  0.44695365     0.38000
C3530       C  0.81231290  0.92172434  0.42943822     0.38000
C3531       C  0.83398198  0.85082186  0.41536250     0.36400
C3532       C  0.93262929  0.93460441  0.46461221     0.36400
N3533       N  0.81447345  0.83436135  0.40494541    -0.38400
N3534       N  0.95323048  0.95175702  0.47414133    -0.38400
N3535       N  0.78418013  0.93368713  0.42428420    -0.37800
N3536       N  0.98663510  0.85751592  0.44913706    -0.37800
loop_ 
_geom_bond_atom_site_label_1 
_geom_bond_atom_site_label_2 
_geom_bond_distance 
_geom_bond_site_symmetry_2 
_ccdc_geom_bond_type 
N1            C6   1.351       .  A
N1            C5   1.352       .  A
N1           H33   1.040       .  S
N2            C9   1.354       .  A
N2           C10   1.350       .  A
N3            C8   1.358       .  A
N3            C7   1.357       .  A
N3           H34   1.040       .  S
N4           C11   1.351       .  A
N4           C12   1.351       .  A
C5           C13   1.387       .  A
C5           C21   1.413       .  A
C6           C22   1.411       .  A
C6           C14   1.387       .  A
C7           C15   1.389       .  A
C7           C24   1.429       .  A
C8           C23   1.422       .  A
C8           C16   1.385       .  A
C9           C21   1.412       .  A
C9           C17   1.383       .  A
C10          C24   1.420       .  A
C10          C18   1.390       .  A
C11          C19   1.385       .  A
C11          C22   1.408       .  A
C12          C20   1.388       .  A
C12          C23   1.414       .  A
C13          C14   1.373       .  A
C13          H25   1.082       .  S
C14          H26   1.082       .  S
C15          C16   1.381       .  A
C15          H27   1.082       .  S
C16          H28   1.080       .  S
C17          C18   1.378       .  A
C17          H29   1.082       .  S
C18          H30   1.082       .  S
C19          C20   1.368       .  A
C19          H31   1.082       .  S
C20          H32   1.082       .  S
C21         C829   1.504       .  S
C22         C843   1.487       .  S
C23         C871   1.509       .  S
C24         C860   1.516       .  S
N35          C40   1.352       .  A
N35          C39   1.348       .  A
N35          H67   1.043       .  S
N36          C43   1.345       .  A
N36          C44   1.351       .  A
N37          C42   1.351       .  A
N37          C41   1.360       .  A
N37          H68   1.043       .  S
N38          C45   1.352       .  A
N38          C46   1.345       .  A
C39          C47   1.388       .  A
C39          C55   1.411       .  A
C40          C56   1.412       .  A
C40          C48   1.386       .  A
C41          C49   1.388       .  A
C41          C58   1.431       .  A
C42          C57   1.418       .  A
C42          C50   1.386       .  A
C43          C55   1.405       .  A
C43          C51   1.384       .  A
C44          C58   1.420       .  A
C44          C52   1.389       .  A
C45          C53   1.383       .  A
C45          C56   1.406       .  A
C46          C54   1.390       .  A
C46          C57   1.410       .  A
C47          C48   1.380       .  A
C47          H59   1.082       .  S
C48          H60   1.082       .  S
C49          C50   1.387       .  A
C49          H61   1.082       .  S
C50          H62   1.082       .  S
C51          C52   1.378       .  A
C51          H63   1.082       .  S
C52          H64   1.082       .  S
C53          C54   1.374       .  A
C53          H65   1.082       .  S
C54          H66   1.081       .  S
C55         C776   1.484       .  S
C56         C790   1.505       .  S
C57         C818   1.488       .  S
C58         C801   1.533       .  S
O69          C77   1.293       .  A
O69         Co89   2.049       .  S
O70          C78   1.266       .  A
O70         Co90   2.031       .  S
O71          C79   1.266       .  A
O71         Co91   2.012       .  S
O72          C80   1.280       .  A
O72        Co976   1.929       .  S
O73          C79   1.263       .  A
O73         Co90   1.993       .  S
O74          C80   1.287       .  A
O74         Co89   2.030       .  S
O75          C78   1.260       .  A
O75         Co92   2.007       .  S
O76          C77   1.275       .  A
O76        Co975   1.921       .  S
C77         C874   1.506       .  S
C78         C717   1.502       .  S
C79         C857   1.504       .  S
C80         C734   1.485       .  S
O81          C94   1.249       .  A
O81         Co89   2.006       .  S
O82          C95   1.262       .  A
O82         Co90   1.979       .  S
O83          C96   1.259       .  A
O83        Co975   1.998       .  S
O84          C97   1.278       .  A
O84         Co92   2.021       .  S
O85          C97   1.259       .  A
O85         Co90   1.961       .  S
O86          C96   1.247       .  A
O86         Co89   1.952       .  S
O87          C94   1.250       .  A
O87        Co976   1.994       .  S
O88          C95   1.273       .  A
O88         Co91   2.038       .  S
Co89        O977   2.229       .  S
Co90         O93   2.092       .  S
Co91        O960   1.916   1_545  S
Co91        O967   2.014   1_545  S
Co91         O93   1.984       .  S
Co92        O956   1.929   1_545  S
Co92        O971   1.987   1_545  S
Co92         O93   1.985       .  S
O93        Co973   2.239   1_545  S
C94         C762   1.506       .  S
C95         C804   1.506       .  S
C96         C815   1.493       .  S
C97         C748   1.487       .  S
N98         C103   1.349       .  A
N98         C102   1.358       .  A
N98         H130   1.040       .  S
N99         C106   1.353       .  A
N99         C107   1.347       .  A
N100        C105   1.354       .  A
N100        C104   1.353       .  A
N100        H131   1.039       .  S
N101        C108   1.355       .  A
N101        C109   1.358       .  A
C102        C110   1.385       .  A
C102        C118   1.417       .  A
C103        C119   1.415       .  A
C103        C111   1.390       .  A
C104        C112   1.387       .  A
C104        C121   1.420       .  A
C105        C120   1.415       .  A
C105        C113   1.385       .  A
C106        C118   1.413       .  A
C106        C114   1.382       .  A
C107        C121   1.415       .  A
C107        C115   1.387       .  A
C108        C116   1.387       .  A
C108        C119   1.420       .  A
C109        C117   1.386       .  A
C109        C120   1.425       .  A
C110        C111   1.367       .  A
C110        H122   1.081       .  S
C111        H123   1.080       .  S
C112        C113   1.377       .  A
C112        H124   1.082       .  S
C113        H125   1.077       .  S
C114        C115   1.375       .  A
C114        H126   1.082       .  S
C115        H127   1.081       .  S
C116        C117   1.373       .  A
C116        H128   1.082       .  S
C117        H129   1.082       .  S
C118        C703   1.515       .  S
C119        C689   1.492       .  S
C120        C720   1.515       .  S
C121        C731   1.497       .  S
N132        C137   1.357       .  A
N132        C136   1.353       .  A
N132        H164   1.041       .  S
N133        C140   1.345       .  A
N133        C141   1.350       .  A
N134        C139   1.345       .  A
N134        C138   1.354       .  A
N134        H165   1.038       .  S
N135        C142   1.354       .  A
N135        C143   1.352       .  A
C136        C144   1.387       .  A
C136        C152   1.421       .  A
C137        C153   1.426       .  A
C137        C145   1.388       .  A
C138        C146   1.384       .  A
C138        C155   1.409       .  A
C139        C154   1.412       .  A
C139        C147   1.390       .  A
C140        C152   1.408       .  A
C140        C148   1.388       .  A
C141        C155   1.408       .  A
C141        C149   1.385       .  A
C142        C150   1.386       .  A
C142        C153   1.420       .  A
C143        C151   1.386       .  A
C143        C154   1.417       .  A
C144        C145   1.386       .  A
C144        H156   1.082       .  S
C145        H157   1.081       .  S
C146        C147   1.377       .  A
C146        H158   1.082       .  S
C147        H159   1.082       .  S
C148        C149   1.366       .  A
C148        H160   1.082       .  S
C149        H161   1.082       .  S
C150        C151   1.380       .  A
C150        H162   1.082       .  S
C151        H163   1.082       .  S
C152        C745   1.497       .  S
C153        C759   1.522       .  S
C154        C675   1.489       .  S
C155        C664   1.497       .  S
C166       N1952   1.352       .  A
C166        C203   1.457       .  S
C166        C832   1.483       .  S
N167        N184   1.325       .  A
N167        N189   1.320   1_455  A
N167       Co204   2.102       .  S
C168        N193   1.351       .  A
C168        H213   1.078       .  S
C168       C1974   1.485   1_455  S
H169        C210   1.081       .  S
C170        N194   1.343       .  A
C170        H199   1.081       .  S
C170        C174   1.456       .  S
Co171      N2841   2.084       .  S
Co171      N1947   2.091       .  S
Co171      N2863   2.080       .  S
Co171      N1955   2.061       .  S
Co171     Cl1983   2.431       .  S
N172        C210   1.338       .  A
N172        N179   1.321   1_455  A
N172       Co173   2.087       .  S
Co173       N176   2.089       .  S
Co173       N193   2.103       .  S
Co173       N180   2.115       .  S
Co173      Cl215   2.470       .  S
C174        N212   1.346       .  A
C174        C787   1.472       .  S
N175        N182   1.321       .  A
N175        N205   1.326       .  A
N175       Co208   2.077       .  S
N176        N194   1.320       .  A
N176        N212   1.321       .  A
N177        C206   1.339       .  A
N177       N1955   1.310       .  A
H178        C203   1.081       .  S
N179       N1968   1.326       .  A
N179      Co1939   2.075       .  S
N180        N198   1.316       .  A
N180        N185   1.334       .  A
C181        N185   1.366       .  A
C181        C209   1.458       .  S
C181        C622   1.518       .  S
N182        C197   1.337       .  A
N182       Co204   2.085       .  S
C183       N1979   1.334       .  A
C183        H217   1.079       .  S
C183        C186   1.451       .  S
N184       C1934   1.351   1_455  A
C186       N1975   1.357       .  A
C186        C633   1.490       .  S
N187        N193   1.317   1_655  A
N187       N1945   1.312       .  A
N187      Co1939   2.066       .  S
N188        C214   1.352       .  A
N188        N190   1.322       .  A
N188       Co204   2.113       .  S
N189       C1971   1.344       .  A
N189      Co2823   2.082       .  S
N190        N218   1.318       .  A
N190       Co208   2.067       .  S
H191        C214   1.081       .  S
H192        C209   1.078       .  S
N194      Co1092   2.072       .  S
N195        N207   1.334   1_455  A
N195        N211   1.319   1_455  A
N195       Co204   2.110       .  S
C196        N200   1.356       .  A
C196        C846   1.488       .  S
C196       C1978   1.453       .  S
C197        H201   1.081       .  S
C197        C216   1.453       .  S
N198        C209   1.327       .  A
N198      Co1092   2.065       .  S
N200       N1947   1.327       .  A
C202        N218   1.340       .  A
C202        C214   1.471       .  S
C202        C647   1.481       .  S
C203       N1957   1.343       .  A
Co204     Cl1099   2.464       .  S
N205        C216   1.349       .  A
C206        C608   1.510       .  S
C206       C1936   1.488       .  S
N207       C1954   1.360       .  A
Co208      N1078   2.078   1_545  S
Co208      N1082   2.067   1_545  S
Co208     Cl1099   2.438       .  S
C210       C1964   1.454   1_455  S
N211       C1951   1.334       .  A
N211      Co2823   2.075       .  S
Cl215     Co1939   2.431   1_455  S
Cl215     Co1088   2.470       .  S
Cl215     Co1092   2.433       .  S
C216        C773   1.476       .  S
O219       C1995   1.294       .  A
O219      Co2007   2.073   1_556  S
O220        C228   1.255       .  A
O220       Co240   2.018       .  S
O221        C229   1.316       .  A
O221       Co241   2.117       .  S
O222       C1998   1.262       .  A
O222       Co242   1.988   1_655  S
O223        C229   1.281       .  A
O223       Co240   1.865   1_556  S
O224        C230   1.258       .  A
O224      Co2007   1.976       .  S
O225        C228   1.245       .  A
O225       Co242   1.967       .  S
O226        C227   1.269   1_455  A
O226       Co241   1.950       .  S
C227       C2359   1.522       .  S
C227       O1987   1.296       .  A
C228        C493   1.483       .  S
C229        C580   1.486       .  S
C230        C507   1.507       .  S
C230       O1990   1.261       .  A
O231        C244   1.271       .  A
O231      Co2007   1.982       .  S
O232        C245   1.278       .  A
O232       Co240   2.017   1_556  S
O233        C246   1.281   1_455  A
O233       Co241   2.093       .  S
O234        C247   1.289       .  A
O234       Co242   2.067       .  S
O235        C247   1.271       .  A
O235       Co240   1.973       .  S
O236       C2014   1.256       .  A
O236      Co2007   1.955   1_556  S
O237       C2012   1.271   1_455  A
O237       Co242   2.003       .  S
O238        C245   1.254       .  A
O238       Co241   1.921       .  S
Co239      O1987   2.082   1_554  S
Co239      O1992   1.978       .  S
Co239      O1999   1.978       .  S
Co239      O2004   1.953   1_554  S
Co239       O243   2.054   1_655  S
Co240       O243   1.999       .  S
Co241       O243   2.040   1_556  S
Co242       O243   2.050       .  S
C244        C535   1.518       .  S
C244       O2005   1.273       .  A
C245        C549   1.486       .  S
C246       C2334   1.499       .  S
C246       O2004   1.253       .  A
C247        C521   1.524       .  S
N248        C253   1.352       .  A
N248        C252   1.344       .  A
N248        H280   1.042       .  S
N249        C256   1.351       .  A
N249        C257   1.353       .  A
N250        C255   1.352       .  A
N250        C254   1.352       .  A
N250        H281   1.038       .  S
N251        C258   1.346       .  A
N251        C259   1.346       .  A
C252        C260   1.379       .  A
C252        C268   1.400       .  A
C253        C269   1.409       .  A
C253        C261   1.387       .  A
C254        C262   1.389       .  A
C254        C271   1.419       .  A
C255        C270   1.412       .  A
C255        C263   1.385       .  A
C256        C268   1.412       .  A
C256        C264   1.373       .  A
C257        C271   1.418       .  A
C257        C265   1.386       .  A
C258        C266   1.384       .  A
C258        C269   1.403       .  A
C259        C267   1.388       .  A
C259        C270   1.408       .  A
C260        C261   1.381       .  A
C260        H272   1.077       .  S
C261        H273   1.082       .  S
C262        C263   1.377       .  A
C262        H274   1.082       .  S
C263        H275   1.082       .  S
C264        C265   1.368       .  A
C264        H276   1.075       .  S
C265        H277   1.081       .  S
C266        C267   1.375       .  A
C266        H278   1.082       .  S
C267        H279   1.082       .  S
C268        C304   1.524       .  S
C269        C465   1.489       .  S
C270        C479   1.489       .  S
C271        C563   1.504       .  S
N282        C287   1.358       .  A
N282        C286   1.350       .  A
N282        H314   1.040       .  S
N283        C290   1.350       .  A
N283        C291   1.358       .  A
N284        C289   1.345       .  A
N284        C288   1.348       .  A
N284        H315   1.046       .  S
N285        C292   1.336       .  A
N285        C293   1.344       .  A
C286        C294   1.389       .  A
C286        C302   1.416       .  A
C287        C303   1.417       .  A
C287        C295   1.386       .  A
C288        C296   1.387       .  A
C288        C305   1.409       .  A
C289        C304   1.409       .  A
C289        C297   1.385       .  A
C290        C302   1.421       .  A
C290        C298   1.387       .  A
C291        C305   1.429       .  A
C291        C299   1.387       .  A
C292        C300   1.388       .  A
C292        C303   1.403       .  A
C293        C301   1.383       .  A
C293        C304   1.402       .  A
C294        C295   1.373       .  A
C294        H306   1.082       .  S
C295        H307   1.082       .  S
C296        C297   1.390       .  A
C296        H308   1.082       .  S
C297        H309   1.082       .  S
C298        C299   1.387       .  A
C298        H310   1.082       .  S
C299        H311   1.082       .  S
C300        C301   1.382       .  A
C300        H312   1.082       .  S
C301        H313   1.078       .  S
C302        C451   1.496       .  S
C303        C440   1.482       .  S
C305        C594   1.540       .  S
C316        N334   1.359       .  A
C316        C706   1.492       .  S
C316       C2121   1.455       .  S
N317        N334   1.332       .  A
N317       N2107   1.319       .  A
N317       Co354   2.110       .  S
C318        N343   1.348       .  A
C318        H363   1.079       .  S
C318        C356   1.481       .  S
H319        C360   1.081       .  S
C320        N344   1.339       .  A
C320        H349   1.082       .  S
C320        C324   1.461       .  S
Co321       N339   2.063       .  S
Co321       N329   2.072       .  S
Co321      N1245   2.068       .  S
Co321      N1221   2.074       .  S
Co321      Cl365   2.418       .  S
N322        C360   1.340       .  A
N322        N329   1.317       .  A
N322       Co323   2.081       .  S
Co323       N326   2.087       .  S
Co323      N1227   2.108       .  S
Co323      N1214   2.073       .  S
Co323      Cl365   2.464       .  S
C324        N362   1.352       .  A
C324        C468   1.481       .  S
N325        N355   1.323       .  A
N325       N2100   1.321   1_455  A
N325       Co358   2.084       .  S
N326        N344   1.319       .  A
N326        N362   1.325       .  A
N327        C356   1.349       .  A
N327        N337   1.321       .  A
H328        C353   1.082   1_455  S
N329        N350   1.322       .  A
N330        N348   1.318       .  A
N330        N335   1.322       .  A
N330      Co1207   2.066   1_545  S
C331        N335   1.347       .  A
C331        C359   1.457       .  S
C331        C437   1.468       .  S
N332        C347   1.339       .  A
N332       N2093   1.322       .  A
N332       Co354   2.090       .  S
C333        N361   1.323       .  A
C333        H367   1.073       .  S
C333       C2104   1.438   1_455  S
C336        N357   1.354       .  A
C336        C692   1.476       .  S
C336       C2101   1.443       .  S
N337        N343   1.316       .  A
N337      Co1205   2.076   1_545  S
N338        C364   1.346       .  A
N338       N2108   1.319       .  A
N338      Co1238   2.104       .  S
N339        C353   1.330   1_455  A
N339       N2085   1.318   1_455  A
N340        N368   1.321       .  A
N340       N2106   1.320       .  A
N340      Co1242   2.074   1_545  S
H341        C364   1.082       .  S
H342        C359   1.082       .  S
N343      Co1207   2.107   1_545  S
N344       Co358   2.080       .  S
N345        N357   1.330       .  A
N345       N2129   1.318       .  A
N345      Co1238   2.078       .  S
C346        N350   1.349       .  A
C346        C360   1.465       .  S
C346        C678   1.487       .  S
C347        H351   1.082       .  S
C347        C366   1.462       .  S
N348        C359   1.337       .  A
N348      Co1242   2.076   1_545  S
C352       N2136   1.345       .  A
C352        C364   1.472       .  S
C352        C454   1.490       .  S
C353       C2084   1.457       .  S
Co354      N1222   2.105       .  S
Co354      N1229   2.096       .  S
Co354     Cl2133   2.484       .  S
N355       C2134   1.349   1_455  A
C356        C661   1.514       .  S
Co358      N1224   2.073       .  S
Co358      N1232   2.073       .  S
Co358      Cl365   2.425       .  S
N361       N2113   1.319       .  A
N361      Co1205   2.056   1_545  S
Cl365     Co2122   2.479   1_455  S
C366       N2123   1.347       .  A
C366        C482   1.477       .  S
N368       C2120   1.347   1_455  A
N369        C374   1.359       .  A
N369        C373   1.355       .  A
N369        H401   1.037       .  S
N370        C377   1.353       .  A
N370        C378   1.352       .  A
N371        C376   1.355       .  A
N371        C375   1.357       .  A
N371        H402   1.025       .  S
N372        C379   1.353       .  A
N372        C380   1.352       .  A
C373        C381   1.385       .  A
C373        C389   1.419       .  A
C374        C390   1.424       .  A
C374        C382   1.388       .  A
C375        C383   1.386       .  A
C375        C392   1.423       .  A
C376        C391   1.427       .  A
C376        C384   1.389       .  A
C377        C389   1.414       .  A
C377        C385   1.385       .  A
C378        C392   1.424       .  A
C378        C386   1.389       .  A
C379        C387   1.385       .  A
C379        C390   1.417       .  A
C380        C388   1.388       .  A
C380        C391   1.420       .  A
C381        C382   1.377       .  A
C381        H393   1.081       .  S
C382        H394   1.082       .  S
C383        C384   1.374       .  A
C383        H395   1.080       .  S
C384        H396   1.082       .  S
C385        C386   1.367       .  A
C385        H397   1.082       .  S
C386        H398   1.082       .  S
C387        C388   1.372       .  A
C387        H399   1.082       .  S
C388        H400   1.082       .  S
C389        C650   1.502       .  S
C390        C636   1.514       .  S
C391        C510   1.503       .  S
C392        C496   1.506       .  S
N403        C408   1.352       .  A
N403        C407   1.353       .  A
N403        H435   1.040       .  S
N404        C411   1.351       .  A
N404        C412   1.349       .  A
N405        C410   1.357       .  A
N405        C409   1.358       .  A
N405        H436   1.042       .  S
N406        C413   1.351       .  A
N406        C414   1.349       .  A
C407        C415   1.384       .  A
C407        C423   1.414       .  A
C408        C424   1.423       .  A
C408        C416   1.390       .  A
C409        C417   1.388       .  A
C409        C426   1.428       .  A
C410        C425   1.423       .  A
C410        C418   1.385       .  A
C411        C423   1.411       .  A
C411        C419   1.385       .  A
C412        C426   1.413       .  A
C412        C420   1.387       .  A
C413        C421   1.387       .  A
C413        C424   1.414       .  A
C414        C422   1.386       .  A
C414        C425   1.410       .  A
C415        C416   1.382       .  A
C415        H427   1.082       .  S
C416        H428   1.082       .  S
C417        C418   1.386       .  A
C417        H429   1.082       .  S
C418        H430   1.081       .  S
C419        C420   1.376       .  A
C419        H431   1.082       .  S
C420        H432   1.082       .  S
C421        C422   1.375       .  A
C421        H433   1.082       .  S
C422        H434   1.082       .  S
C423        C619   1.500       .  S
C424        C605   1.505       .  S
C425        C538   1.504       .  S
C426        C524   1.519       .  S
C437        C438   1.410       .  A
C437        C442   1.408       .  A
C438        C439   1.403       .  A
C438        C443   1.450       .  S
C439        C440   1.410       .  A
C439        C446   1.452       .  S
C440        C441   1.410       .  A
C441        C442   1.408       .  A
C441        C444   1.448       .  S
C442        C445   1.451       .  S
C443        N450   1.156   1_545  T
C444        N449   1.157       .  T
C445        N447   1.157       .  T
C446        N448   1.157       .  T
C451        C452   1.410       .  A
C451        C456   1.415       .  A
C452        C453   1.409       .  A
C452        C457   1.452       .  S
C453        C454   1.421       .  A
C453        C460   1.453       .  S
C454        C455   1.411       .  A
C455        C456   1.413       .  A
C455        C458   1.451       .  S
C456        C459   1.451       .  S
C457        N464   1.157       .  T
C458        N463   1.157       .  T
C459        N461   1.157       .  T
C460        N462   1.158       .  T
C465        C466   1.412       .  A
C465        C470   1.409       .  A
C466        C467   1.409       .  A
C466        C471   1.452       .  S
C467        C468   1.415       .  A
C467        C474   1.451       .  S
C468        C469   1.411       .  A
C469        C470   1.410       .  A
C469        C472   1.450       .  S
C470        C473   1.448       .  S
C471        N478   1.157       .  T
C472        N477   1.157       .  T
C473        N475   1.156       .  T
C474        N476   1.157       .  T
C479        C480   1.412       .  A
C479        C484   1.412       .  A
C480        C481   1.408       .  A
C480        C485   1.451       .  S
C481        C482   1.410       .  A
C481        C488   1.451       .  S
C482        C483   1.413       .  A
C483        C484   1.409       .  A
C483        C486   1.451       .  S
C484        C487   1.451       .  S
C485        N492   1.157       .  T
C486        N491   1.157       .  T
C487        N489   1.157       .  T
C488       N2258   1.157       .  T
N490       C2256   1.157   1_455  T
C493        C494   1.411       .  A
C493        C498   1.407       .  A
C494        C495   1.420       .  A
C494        C499   1.448       .  S
C495        C496   1.418       .  A
C495        C502   1.448       .  S
C496        C497   1.414       .  A
C497        C498   1.400       .  A
C497        C500   1.454       .  S
C498        C501   1.445       .  S
C499        N506   1.157       .  T
C500        N505   1.157       .  T
C501        N503   1.156       .  T
C502        N504   1.157       .  T
C507        C508   1.427       .  A
C507        C512   1.421       .  A
C508        C509   1.407       .  A
C508        C513   1.452       .  S
C509        C510   1.409       .  A
C509        C516   1.454       .  S
C510        C511   1.413       .  A
C511        C512   1.416       .  A
C511        C514   1.451       .  S
C512        C515   1.451       .  S
C513        N520   1.157       .  T
C514        N519   1.157       .  T
C515       N2285   1.158       .  T
C516        N518   1.157       .  T
N517       C2283   1.158       .  T
C521        C522   1.415       .  A
C521        C526   1.429       .  A
C522        C523   1.412       .  A
C522        C527   1.449       .  S
C523        C524   1.419       .  A
C523        C530   1.452       .  S
C524        C525   1.413       .  A
C525        C526   1.421       .  A
C525        C528   1.452       .  S
C526        C529   1.445       .  S
C527        N534   1.158       .  T
C528        N533   1.158       .  T
C529        N531   1.156       .  T
C530        N532   1.158       .  T
C535        C536   1.424       .  A
C535        C540   1.431       .  A
C536        C537   1.423       .  A
C536        C541   1.450       .  S
C537        C538   1.412       .  A
C537        C544   1.450       .  S
C538        C539   1.407       .  A
C539        C540   1.410       .  A
C539        C542   1.454       .  S
C540        C543   1.453       .  S
C541        N548   1.158       .  T
C542        N547   1.157       .  T
C543        N545   1.158       .  T
C544        N546   1.157       .  T
C549        C550   1.406       .  A
C549        C554   1.430       .  A
C550        C551   1.417       .  A
C550        C555   1.445       .  S
C551        C552   1.421       .  A
C551        C558   1.443       .  S
C552        C553   1.412       .  A
C552        C577   1.536       .  S
C553        C554   1.403       .  A
C553        C556   1.446       .  S
C554        C557   1.457       .  S
C555        N562   1.157       .  T
C556        N561   1.157       .  T
C557        N559   1.158       .  T
C558        N560   1.157       .  T
C563        C564   1.413       .  A
C563        C568   1.412       .  A
C564        C565   1.405       .  A
C564        C569   1.452       .  S
C565        C566   1.407       .  A
C565       C2340   1.439       .  S
C566        C567   1.424       .  A
C566       C2014   1.502       .  S
C567        C568   1.415       .  A
C567        C570   1.450       .  S
C568        C571   1.452       .  S
C569        N576   1.157       .  T
C570        N575   1.157       .  T
C571        N573   1.157       .  T
C572       C2333   1.441   1_455  S
C572        N574   1.156       .  T
C577        C578   1.419       .  A
C577        C582   1.416       .  A
C578        C579   1.414       .  A
C578        C583   1.445       .  S
C579        C580   1.410       .  A
C579        C586   1.444       .  S
C580        C581   1.415       .  A
C581        C582   1.412       .  A
C581        C584   1.448       .  S
C582        C585   1.443       .  S
C583        N590   1.157       .  T
C584        N589   1.157   1_556  T
C585        N587   1.157       .  T
C586        N588   1.157       .  T
C591        C592   1.412       .  A
C591        C596   1.424       .  A
C591       C1995   1.523       .  S
C592        C593   1.415       .  A
C592        C597   1.455       .  S
C593        C594   1.429       .  A
C593        C600   1.444       .  S
C594        C595   1.422       .  A
C595        C596   1.429       .  A
C595        C598   1.452       .  S
C596       C2367   1.447       .  S
C597        N604   1.157       .  T
C598        N603   1.158       .  T
C599       C2364   1.447       .  S
C599        N601   1.157   1_655  T
C600        N602   1.157       .  T
C605        C606   1.406       .  A
C605        C610   1.418       .  A
C606        C607   1.400       .  A
C606        C611   1.454       .  S
C607        C608   1.430       .  A
C607        C614   1.453       .  S
C608        C609   1.420       .  A
C609        C610   1.421       .  A
C609       C2380   1.448       .  S
C610        C613   1.450       .  S
C611        N618   1.157       .  T
C612       C2377   1.448       .  S
C612        N617   1.158   1_655  T
C613        N615   1.157       .  T
C614        N616   1.158       .  T
C619        C620   1.411       .  A
C619        C624   1.404       .  A
C620        C621   1.422       .  A
C620        C625   1.450       .  S
C621        C622   1.424       .  A
C621        C628   1.450       .  S
C622        C623   1.430       .  A
C623        C624   1.409       .  A
C623        C626   1.448       .  S
C624        C627   1.455       .  S
C625        N632   1.157       .  T
C626        N631   1.157       .  T
C627        N629   1.157       .  T
C628        N630   1.158       .  T
C633        C634   1.411       .  A
C633        C638   1.410       .  A
C634        C635   1.417       .  A
C634        C639   1.449       .  S
C635        C636   1.418       .  A
C635        C642   1.450       .  S
C636        C637   1.418       .  A
C637        C638   1.414       .  A
C637        C640   1.452       .  S
C638        C641   1.451       .  S
C639        N646   1.157       .  T
C640        N645   1.157       .  T
C641       N1527   1.157       .  T
C642        N644   1.157       .  T
N643       C1525   1.157       .  T
C647        C648   1.410       .  A
C647        C652   1.413       .  A
C648        C649   1.413       .  A
C648        C653   1.450       .  S
C649        C650   1.415       .  A
C649        C656   1.451       .  S
C650        C651   1.413       .  A
C651        C652   1.412       .  A
C651        C654   1.451       .  S
C652        C655   1.452       .  S
C653        N660   1.157       .  T
C654        N659   1.157       .  T
C655        N657   1.157       .  T
C656        N658   1.157       .  T
C661        C662   1.425       .  A
C661        C666   1.427       .  A
C662        C663   1.419       .  A
C662        C667   1.448       .  S
C663        C664   1.408       .  A
C663        C670   1.451       .  S
C664        C665   1.404       .  A
C665        C666   1.407       .  A
C665        C668   1.455       .  S
C666        C669   1.448       .  S
C667        N674   1.158       .  T
C668        N673   1.157       .  T
C669        N671   1.156       .  T
C670        N672   1.157       .  T
C675        C676   1.407       .  A
C675        C680   1.411       .  A
C676        C677   1.412       .  A
C676        C681   1.451       .  S
C677        C678   1.421       .  A
C677        C684   1.450       .  S
C678        C679   1.413       .  A
C679        C680   1.407       .  A
C679        C682   1.452       .  S
C680        C683   1.452       .  S
C681        N688   1.157       .  T
C682        N687   1.157       .  T
C683        N685   1.157       .  T
C684        N686   1.158       .  T
C689        C690   1.413       .  A
C689        C694   1.410       .  A
C690        C691   1.411       .  A
C690        C695   1.451       .  S
C691        C692   1.410       .  A
C691        C698   1.449       .  S
C692        C693   1.413       .  A
C693        C694   1.404       .  A
C693       C2464   1.452       .  S
C694       C2465   1.450       .  S
C695        N702   1.157       .  T
C696       C2461   1.453       .  S
C696        N701   1.157       .  T
C697       C2462   1.450       .  S
C697        N699   1.156       .  T
C698        N700   1.157       .  T
C703        C704   1.417       .  A
C703        C708   1.422       .  A
C704        C705   1.406       .  A
C704        C709   1.445       .  S
C705        C706   1.411       .  A
C705        C712   1.454       .  S
C706        C707   1.409       .  A
C707        C708   1.419       .  A
C707        C710   1.448       .  S
C708        C711   1.450       .  S
C709        N716   1.155       .  T
C710        N715   1.157       .  T
C711        N713   1.157       .  T
C712        N714   1.157       .  T
C717        C718   1.413       .  A
C717        C722   1.406       .  A
C718        C719   1.428       .  A
C718        C723   1.446       .  S
C719        C720   1.423       .  A
C719        C726   1.447       .  S
C720        C721   1.413       .  A
C721        C722   1.400       .  A
C721        C724   1.452       .  S
C722        C725   1.441       .  S
C723        N730   1.157       .  T
C724        N729   1.157       .  T
C725        N727   1.156       .  T
C726        N728   1.157       .  T
C731        C732   1.415       .  A
C731        C736   1.410       .  A
C732        C733   1.410       .  A
C732        C737   1.446       .  S
C733        C734   1.407       .  A
C733        C740   1.447       .  S
C734        C735   1.412       .  A
C735        C736   1.403       .  A
C735        C738   1.443       .  S
C736        C739   1.450       .  S
C737        N744   1.157       .  T
C738        N743   1.155       .  T
C739        N741   1.157       .  T
C740        N742   1.157       .  T
C745        C746   1.413       .  A
C745        C750   1.421       .  A
C746        C747   1.410       .  A
C746        C751   1.451       .  S
C747        C748   1.418       .  A
C747        C754   1.450       .  S
C748        C749   1.400       .  A
C749        C750   1.403       .  A
C749        C752   1.449       .  S
C750        C753   1.452       .  S
C751        N758   1.157       .  T
C752        N757   1.157       .  T
C753        N755   1.157       .  T
C754        N756   1.158       .  T
C759        C760   1.419       .  A
C759        C764   1.417       .  A
C760        C761   1.423       .  A
C760        C765   1.449       .  S
C761        C762   1.417       .  A
C761        C768   1.450       .  S
C762        C763   1.416       .  A
C763        C764   1.416       .  A
C763        C766   1.449       .  S
C764        C767   1.451       .  S
C765        N772   1.157       .  T
C766        N771   1.157       .  T
C767        N769   1.157       .  T
C768        N770   1.157       .  T
C773        C774   1.408       .  A
C773        C778   1.411       .  A
C774        C775   1.404       .  A
C774        C779   1.446       .  S
C775        C776   1.410       .  A
C775        C782   1.452       .  S
C776        C777   1.410       .  A
C777        C778   1.411       .  A
C777        C780   1.450       .  S
C778        C781   1.449       .  S
C779        N786   1.155       .  T
C780        N785   1.157       .  T
C781        N783   1.157       .  T
C782        N784   1.157       .  T
C787        C788   1.405       .  A
C787        C792   1.405       .  A
C788        C789   1.408       .  A
C788        C793   1.451       .  S
C789        C790   1.419       .  A
C789        C796   1.451       .  S
C790        C791   1.422       .  A
C791        C792   1.412       .  A
C791        C794   1.450       .  S
C792        C795   1.451       .  S
C793        N800   1.157       .  T
C794        N799   1.158       .  T
C795        N797   1.158       .  T
C796        N798   1.157       .  T
C801        C802   1.428       .  A
C801        C806   1.421       .  A
C802        C803   1.422       .  A
C802        C807   1.450       .  S
C803        C804   1.408       .  A
C803        C810   1.448       .  S
C804        C805   1.416       .  A
C805        C806   1.417       .  A
C805        C808   1.447       .  S
C806        C809   1.449       .  S
C807        N814   1.157       .  T
C808        N813   1.156       .  T
C809        N811   1.157       .  T
C810        N812   1.157       .  T
C815        C816   1.425       .  A
C815        C820   1.414       .  A
C816        C817   1.401       .  A
C816        C821   1.451       .  S
C817        C818   1.406       .  A
C817        C824   1.456       .  S
C818        C819   1.414       .  A
C819        C820   1.416       .  A
C819        C822   1.449       .  S
C820        C823   1.450       .  S
C821        N828   1.157       .  T
C822        N827   1.157       .  T
C823        N825   1.157       .  T
C824        N826   1.157       .  T
C829        C830   1.417       .  A
C829        C834   1.416       .  A
C830        C831   1.411       .  A
C830        C835   1.451       .  S
C831        C832   1.409       .  A
C831        C838   1.450       .  S
C832        C833   1.409       .  A
C833        C834   1.414       .  A
C833        C836   1.450       .  S
C834        C837   1.448       .  S
C835        N842   1.157       .  T
C836        N841   1.157       .  T
C837        N839   1.157       .  T
C838        N840   1.157       .  T
C843        C844   1.405       .  A
C843        C848   1.411       .  A
C844        C845   1.404       .  A
C844        C849   1.454       .  S
C845        C846   1.418       .  A
C845       C2620   1.444       .  S
C846        C847   1.414       .  A
C847        C848   1.411       .  A
C847        C850   1.451       .  S
C848        C851   1.450       .  S
C849       N2624   1.157       .  T
C850        N855   1.157       .  T
C851        N853   1.157       .  T
C852       C2613   1.447   1_455  S
C852        N854   1.155       .  T
N856       C2617   1.157       .  T
C857        C858   1.414       .  A
C857        C862   1.415       .  A
C858        C859   1.419       .  A
C858        C863   1.448       .  S
C859        C860   1.422       .  A
C859        C866   1.449       .  S
C860        C861   1.415       .  A
C861        C862   1.405       .  A
C861        C864   1.449       .  S
C862        C865   1.450       .  S
C863        N870   1.157       .  T
C864        N869   1.157       .  T
C865        N867   1.157       .  T
C866        N868   1.157       .  T
C871        C872   1.413       .  A
C871        C876   1.416       .  A
C872        C873   1.419       .  A
C872        C877   1.450       .  S
C873        C874   1.421       .  A
C873        C880   1.450       .  S
C874        C875   1.420       .  A
C875        C876   1.413       .  A
C875        C878   1.452       .  S
C876        C879   1.454       .  S
C877        N884   1.157       .  T
C878        N883   1.157       .  T
C879        N881   1.157       .  T
C880        N882   1.157       .  T
N885        C890   1.350       .  A
N885        C889   1.352       .  A
N885        H917   1.041       .  S
N886        C893   1.355       .  A
N886        C894   1.350       .  A
N887        C892   1.360       .  A
N887        C891   1.357       .  A
N887        H918   1.042       .  S
N888        C895   1.350       .  A
N888        C896   1.352       .  A
C889        C897   1.387       .  A
C889        C905   1.414       .  A
C890        C906   1.410       .  A
C890        C898   1.387       .  A
C891        C899   1.389       .  A
C891        C908   1.431       .  A
C892        C907   1.426       .  A
C892        C900   1.386       .  A
C893        C905   1.414       .  A
C893        C901   1.383       .  A
C894        C908   1.421       .  A
C894        C902   1.390       .  A
C895        C903   1.384       .  A
C895        C906   1.409       .  A
C896        C904   1.389       .  A
C896        C907   1.416       .  A
C897        C898   1.377       .  A
C897        H909   1.083       .  S
C898        H910   1.082       .  S
C899        C900   1.383       .  A
C899        H911   1.082       .  S
C900        H912   1.081       .  S
C901        C902   1.379       .  A
C901        H913   1.082       .  S
C902        H914   1.082       .  S
C903        C904   1.369       .  A
C903        H915   1.082       .  S
C904        H916   1.081       .  S
C905       C1713   1.509       .  S
C906       C1727   1.488       .  S
C907       C1755   1.515       .  S
C908       C1744   1.520       .  S
N919        C924   1.352       .  A
N919        C923   1.349       .  A
N919        H951   1.042       .  S
N920        C927   1.346       .  A
N920        C928   1.349       .  A
N921        C926   1.353       .  A
N921        C925   1.359       .  A
N921        H952   1.042       .  S
N922        C929   1.351       .  A
N922        C930   1.346       .  A
C923        C931   1.388       .  A
C923        C939   1.411       .  A
C924        C940   1.412       .  A
C924        C932   1.386       .  A
C925        C933   1.388       .  A
C925        C942   1.430       .  A
C926        C941   1.420       .  A
C926        C934   1.385       .  A
C927        C939   1.403       .  A
C927        C935   1.383       .  A
C928        C942   1.419       .  A
C928        C936   1.390       .  A
C929        C937   1.383       .  A
C929        C940   1.405       .  A
C930        C938   1.389       .  A
C930        C941   1.410       .  A
C931        C932   1.378       .  A
C931        H943   1.082       .  S
C932        H944   1.082       .  S
C933        C934   1.387       .  A
C933        H945   1.082       .  S
C934        H946   1.082       .  S
C935        C936   1.377       .  A
C935        H947   1.082       .  S
C936        H948   1.082       .  S
C937        C938   1.373       .  A
C937        H949   1.082       .  S
C938        H950   1.081       .  S
C939       C1660   1.484       .  S
C940       C1674   1.503       .  S
C941       C1702   1.496       .  S
C942       C1685   1.525       .  S
O953        C961   1.296       .  A
O953       Co973   2.059       .  S
O954        C962   1.267       .  A
O954       Co974   2.027       .  S
O955        C963   1.265       .  A
O955       Co975   2.010       .  S
O956        C964   1.279       .  A
O957        C963   1.265       .  A
O957       Co974   2.005       .  S
O958        C964   1.289       .  A
O958       Co973   2.034       .  S
O959        C962   1.262       .  A
O959       Co976   2.009       .  S
O960        C961   1.273       .  A
C961       C1758   1.508       .  S
C962       C1601   1.501       .  S
C963       C1741   1.508       .  S
C964       C1618   1.486       .  S
O965        C978   1.249       .  A
O965       Co973   2.003       .  S
O966        C979   1.259       .  A
O966       Co974   1.974       .  S
O967        C980   1.265       .  A
O968        C981   1.278       .  A
O968       Co976   2.026       .  S
O969        C981   1.257       .  A
O969       Co974   1.958       .  S
O970        C980   1.248       .  A
O970       Co973   1.955       .  S
O971        C978   1.247       .  A
O972        C979   1.274       .  A
O972       Co975   2.039       .  S
Co974       O977   2.075       .  S
Co975       O977   1.987       .  S
Co976       O977   1.986       .  S
C978       C1646   1.498       .  S
C979       C1688   1.497       .  S
C980       C1699   1.506       .  S
C981       C1632   1.490       .  S
N982        C987   1.351       .  A
N982        C986   1.358       .  A
N982       H1014   1.038       .  S
N983        C990   1.353       .  A
N983        C991   1.347       .  A
N984        C989   1.355       .  A
N984        C988   1.355       .  A
N984       H1015   1.038       .  S
N985        C992   1.357       .  A
N985        C993   1.359       .  A
C986        C994   1.385       .  A
C986       C1002   1.419       .  A
C987       C1003   1.419       .  A
C987        C995   1.390       .  A
C988        C996   1.386       .  A
C988       C1005   1.422       .  A
C989       C1004   1.419       .  A
C989        C997   1.385       .  A
C990       C1002   1.411       .  A
C990        C998   1.382       .  A
C991       C1005   1.415       .  A
C991        C999   1.387       .  A
C992       C1000   1.387       .  A
C992       C1003   1.425       .  A
C993       C1001   1.386       .  A
C993       C1004   1.428       .  A
C994        C995   1.371       .  A
C994       H1006   1.082       .  S
C995       H1007   1.081       .  S
C996        C997   1.376       .  A
C996       H1008   1.082       .  S
C997       H1009   1.077       .  S
C998        C999   1.372       .  A
C998       H1010   1.082       .  S
C999       H1011   1.079       .  S
C1000      C1001   1.372       .  A
C1000      H1012   1.082       .  S
C1001      H1013   1.082       .  S
C1002      C1587   1.511       .  S
C1003      C1573   1.501       .  S
C1004      C1604   1.518       .  S
C1005      C1615   1.503       .  S
N1016      C1021   1.355       .  A
N1016      C1020   1.354       .  A
N1016      H1048   1.042       .  S
N1017      C1024   1.346       .  A
N1017      C1025   1.350       .  A
N1018      C1023   1.346       .  A
N1018      C1022   1.353       .  A
N1018      H1049   1.039       .  S
N1019      C1026   1.352       .  A
N1019      C1027   1.352       .  A
C1020      C1028   1.387       .  A
C1020      C1036   1.420       .  A
C1021      C1037   1.423       .  A
C1021      C1029   1.388       .  A
C1022      C1030   1.386       .  A
C1022      C1039   1.412       .  A
C1023      C1038   1.412       .  A
C1023      C1031   1.388       .  A
C1024      C1036   1.408       .  A
C1024      C1032   1.388       .  A
C1025      C1039   1.412       .  A
C1025      C1033   1.386       .  A
C1026      C1034   1.386       .  A
C1026      C1037   1.417       .  A
C1027      C1035   1.386       .  A
C1027      C1038   1.414       .  A
C1028      C1029   1.386       .  A
C1028      H1040   1.082       .  S
C1029      H1041   1.081       .  S
C1030      C1031   1.377       .  A
C1030      H1042   1.082       .  S
C1031      H1043   1.082       .  S
C1032      C1033   1.368       .  A
C1032      H1044   1.083       .  S
C1033      H1045   1.081       .  S
C1034      C1035   1.377       .  A
C1034      H1046   1.082       .  S
C1035      H1047   1.082       .  S
C1036      C1629   1.499       .  S
C1037      C1643   1.513       .  S
C1038      C1559   1.491       .  S
C1039      C1548   1.499       .  S
C1050      N2836   1.353       .  A
C1050      C1087   1.460       .  S
C1050      C1716   1.489       .  S
N1051      N1068   1.326       .  A
N1051      N1073   1.321   1_455  A
N1051     Co1088   2.103       .  S
C1052      N1077   1.351       .  A
C1052      H1097   1.078       .  S
C1052      C2858   1.485   1_455  S
H1053      C1094   1.081       .  S
C1054      N1078   1.344       .  A
C1054      H1083   1.081       .  S
C1054      C1058   1.459       .  S
Co1055     N1957   2.078       .  S
Co1055     N2831   2.092   1_545  S
Co1055     N1979   2.081       .  S
Co1055     N2839   2.065   1_545  S
Co1055    Cl2867   2.446       .  S
N1056      C1094   1.335       .  A
N1056      N1063   1.320   1_455  A
N1056     Co1057   2.072       .  S
Co1057     N1060   2.091       .  S
Co1057     N1077   2.102       .  S
Co1057     N1064   2.096       .  S
Co1057    Cl1099   2.464   1_565  S
C1058      N1096   1.347       .  A
C1058      C1671   1.476       .  S
N1059      N1066   1.320       .  A
N1059      N1089   1.325       .  A
N1059     Co1092   2.071       .  S
N1060      N1078   1.321       .  A
N1060      N1096   1.322       .  A
N1061      C1090   1.343       .  A
N1061      N2839   1.317       .  A
H1062      C1087   1.081       .  S
N1063      N2852   1.326       .  A
N1063     Co2823   2.082   1_565  S
N1064      N1082   1.316       .  A
N1064      N1069   1.330       .  A
C1065      N1069   1.362       .  A
C1065      C1093   1.460       .  S
C1065      C1506   1.509       .  S
N1066      C1081   1.338       .  A
N1066     Co1088   2.088       .  S
C1067      N2863   1.336       .  A
C1067      H1101   1.078       .  S
C1067      C1070   1.449       .  S
N1068      C2818   1.352   1_455  A
C1070      N2859   1.362       .  A
C1070      C1517   1.501       .  S
N1071      N2829   1.311       .  A
N1071      N1077   1.316   1_655  A
N1071     Co2823   2.059   1_565  S
N1072      C1098   1.352       .  A
N1072      N1074   1.322       .  A
N1072     Co1088   2.112       .  S
N1073      C2855   1.344       .  A
N1073     Co1939   2.085       .  S
N1074      N1102   1.317       .  A
N1074     Co1092   2.068       .  S
H1075      C1098   1.081       .  S
H1076      C1093   1.077       .  S
N1079      N1091   1.333   1_455  A
N1079      N1095   1.319   1_455  A
N1079     Co1088   2.108       .  S
C1080      N1084   1.353       .  A
C1080      C2862   1.449       .  S
C1080      C1730   1.478       .  S
C1081      H1085   1.081       .  S
C1081      C1100   1.457       .  S
N1082      C1093   1.328       .  A
N1084      N2831   1.329       .  A
C1086      N1102   1.340       .  A
C1086      C1098   1.471       .  S
C1086      C1531   1.480       .  S
C1087      N2841   1.345       .  A
N1089      C1100   1.347       .  A
C1090      C2820   1.477       .  S
C1090      C1492   1.495       .  S
N1091      C2838   1.360       .  A
C1094      C2848   1.449   1_455  S
N1095      C2835   1.332       .  A
N1095     Co1939   2.069       .  S
Cl1099    Co2823   2.432   1_455  S
C1100      C1657   1.478       .  S
O1103      C2879   1.293       .  A
O1103     Co2891   2.074   1_556  S
O1104      C1112   1.256       .  A
O1104     Co1124   2.016       .  S
O1105      C1113   1.315       .  A
O1105     Co1125   2.109       .  S
O1106      C2882   1.261       .  A
O1106     Co1126   1.990   1_655  S
O1107      C1113   1.280       .  A
O1107     Co1124   1.882   1_556  S
O1108      C1114   1.255       .  A
O1108     Co2891   1.970       .  S
O1109      C1112   1.247       .  A
O1109     Co1126   1.964       .  S
O1110      C1111   1.269   1_455  A
O1110     Co1125   1.953       .  S
C1111      C3243   1.521       .  S
C1111      O2871   1.294       .  A
C1112      C1377   1.485       .  S
C1113      C1464   1.492       .  S
C1114      C1391   1.504       .  S
C1114      O2874   1.260       .  A
O1115      C1128   1.274       .  A
O1115     Co2891   1.984       .  S
O1116      C1129   1.277       .  A
O1116     Co1124   2.015   1_556  S
O1117      C1130   1.280   1_455  A
O1117     Co1125   2.079       .  S
O1118      C1131   1.287       .  A
O1118     Co1126   2.059       .  S
O1119      C1131   1.271       .  A
O1119     Co1124   1.973       .  S
O1120      C2898   1.256       .  A
O1120     Co2891   1.958   1_556  S
O1121      C2896   1.275   1_455  A
O1121     Co1126   2.017       .  S
O1122      C1129   1.256       .  A
O1122     Co1125   1.939       .  S
Co1123     O2871   2.072   1_554  S
Co1123     O2876   1.969       .  S
Co1123     O2883   1.989       .  S
Co1123     O2888   1.956   1_554  S
Co1123     O1127   2.060   1_655  S
Co1124     O1127   2.002       .  S
Co1125     O1127   2.049   1_556  S
Co1126     O1127   2.050       .  S
C1128      C1419   1.522       .  S
C1128      O2889   1.273       .  A
C1129      C1433   1.489       .  S
C1130      C3218   1.495       .  S
C1130      O2888   1.256       .  A
C1131      C1405   1.522       .  S
N1132      C1137   1.354       .  A
N1132      C1136   1.348       .  A
N1132      H1164   1.038       .  S
N1133      C1140   1.353       .  A
N1133      C1141   1.356       .  A
N1134      C1139   1.349       .  A
N1134      C1138   1.351       .  A
N1134      H1165   1.036       .  S
N1135      C1142   1.348       .  A
N1135      C1143   1.348       .  A
C1136      C1144   1.386       .  A
C1136      C1152   1.416       .  A
C1137      C1153   1.416       .  A
C1137      C1145   1.387       .  A
C1138      C1146   1.390       .  A
C1138      C1155   1.418       .  A
C1139      C1154   1.406       .  A
C1139      C1147   1.383       .  A
C1140      C1152   1.424       .  A
C1140      C1148   1.378       .  A
C1141      C1155   1.422       .  A
C1141      C1149   1.386       .  A
C1142      C1150   1.386       .  A
C1142      C1153   1.409       .  A
C1143      C1151   1.386       .  A
C1143      C1154   1.408       .  A
C1144      C1145   1.379       .  A
C1144      H1156   1.082       .  S
C1145      H1157   1.082       .  S
C1146      C1147   1.377       .  A
C1146      H1158   1.082       .  S
C1147      H1159   1.082       .  S
C1148      C1149   1.368       .  A
C1148      H1160   1.073       .  S
C1149      H1161   1.081       .  S
C1150      C1151   1.372       .  A
C1150      H1162   1.082       .  S
C1151      H1163   1.082       .  S
C1152      C1188   1.526       .  S
C1153      C1349   1.492       .  S
C1154      C1363   1.484       .  S
C1155      C1447   1.507       .  S
N1166      C1171   1.358       .  A
N1166      C1170   1.356       .  A
N1166      H1198   1.038       .  S
N1167      C1174   1.349       .  A
N1167      C1175   1.358       .  A
N1168      C1173   1.343       .  A
N1168      C1172   1.344       .  A
N1168      H1199   1.045       .  S
N1169      C1176   1.340       .  A
N1169      C1177   1.345       .  A
C1170      C1178   1.392       .  A
C1170      C1186   1.428       .  A
C1171      C1187   1.419       .  A
C1171      C1179   1.384       .  A
C1172      C1180   1.387       .  A
C1172      C1189   1.406       .  A
C1173      C1188   1.405       .  A
C1173      C1181   1.387       .  A
C1174      C1186   1.423       .  A
C1174      C1182   1.387       .  A
C1175      C1189   1.429       .  A
C1175      C1183   1.387       .  A
C1176      C1184   1.386       .  A
C1176      C1187   1.400       .  A
C1177      C1185   1.383       .  A
C1177      C1188   1.392       .  A
C1178      C1179   1.372       .  A
C1178      H1190   1.081       .  S
C1179      H1191   1.082       .  S
C1180      C1181   1.391       .  A
C1180      H1192   1.082       .  S
C1181      H1193   1.082       .  S
C1182      C1183   1.384       .  A
C1182      H1194   1.082       .  S
C1183      H1195   1.081       .  S
C1184      C1185   1.379       .  A
C1184      H1196   1.082       .  S
C1185      H1197   1.081       .  S
C1186      C1335   1.506       .  S
C1187      C1324   1.493       .  S
C1189      C1478   1.535       .  S
C1200      N1218   1.359       .  A
C1200      C3005   1.454       .  S
C1200      C1590   1.488       .  S
N1201      N1218   1.331       .  A
N1201      N2991   1.318       .  A
N1201     Co1238   2.106   1_565  S
C1202      N1227   1.347       .  A
C1202      H1247   1.078       .  S
C1202      C1240   1.482       .  S
H1203      C1244   1.082       .  S
C1204      N1228   1.338       .  A
C1204      H1233   1.081       .  S
C1204      C1208   1.463       .  S
Co1205     N1223   2.066       .  S
Co1205     N1213   2.067       .  S
Co1205    Cl1249   2.407       .  S
N1206      C1244   1.342       .  A
N1206      N1213   1.317       .  A
N1206     Co1207   2.078       .  S
Co1207     N1210   2.095       .  S
Co1207    Cl1249   2.470       .  S
C1208      N1246   1.354       .  A
C1208      C1352   1.492       .  S
N1209      N2984   1.320   1_455  A
N1209      N1239   1.323       .  A
N1209     Co1242   2.087       .  S
N1210      N1228   1.319       .  A
N1210      N1246   1.325       .  A
N1211      C1240   1.350       .  A
N1211      N1221   1.321       .  A
H1212      C1237   1.082       .  S
N1213      N1234   1.321       .  A
N1214      N1232   1.319       .  A
N1214      N1219   1.322       .  A
C1215      N1219   1.350       .  A
C1215      C1243   1.455       .  S
C1215      C1321   1.473       .  S
N1216      C1231   1.338       .  A
N1216      N2977   1.321       .  A
N1216     Co1238   2.073   1_565  S
C1217      N1245   1.326       .  A
C1217      H1251   1.073       .  S
C1217      C2988   1.442   1_455  S
C1220      N1241   1.357       .  A
C1220      C2985   1.445       .  S
C1220      C1576   1.484       .  S
N1221      N1227   1.316       .  A
N1222      C1248   1.346       .  A
N1222      N2992   1.320       .  A
N1223      C1237   1.329       .  A
N1223      N2969   1.319   1_455  A
N1224      N2990   1.321   1_455  A
N1224      N1252   1.323       .  A
H1225      C1248   1.082       .  S
H1226      C1243   1.082       .  S
N1228     Co1242   2.081       .  S
N1229      N1241   1.331       .  A
N1229      N3013   1.320       .  A
C1230      N1234   1.347       .  A
C1230      C1244   1.463       .  S
C1230      C1562   1.483       .  S
C1231      H1235   1.082       .  S
C1231      C1250   1.456       .  S
N1232      C1243   1.335       .  A
C1236      N3020   1.347       .  A
C1236      C1248   1.471       .  S
C1236      C1338   1.494       .  S
C1237      C2968   1.457   1_455  S
Co1238    Cl3017   2.486   1_545  S
N1239      C3018   1.349   1_455  A
C1240      C1545   1.516       .  S
Co1242    Cl1249   2.419       .  S
N1245      N2997   1.320   1_455  A
Cl1249    Co3006   2.485   1_465  S
C1250      N3007   1.349       .  A
C1250      C1366   1.473       .  S
N1252      C3004   1.346   1_455  A
N1253      C1258   1.359       .  A
N1253      C1257   1.356       .  A
N1253      H1285   1.037       .  S
N1254      C1261   1.353       .  A
N1254      C1262   1.353       .  A
N1255      C1260   1.356       .  A
N1255      C1259   1.361       .  A
N1255      H1286   1.035       .  S
N1256      C1263   1.355       .  A
N1256      C1264   1.353       .  A
C1257      C1265   1.387       .  A
C1257      C1273   1.422       .  A
C1258      C1274   1.421       .  A
C1258      C1266   1.386       .  A
C1259      C1267   1.385       .  A
C1259      C1276   1.423       .  A
C1260      C1275   1.430       .  A
C1260      C1268   1.391       .  A
C1261      C1273   1.418       .  A
C1261      C1269   1.387       .  A
C1262      C1276   1.421       .  A
C1262      C1270   1.387       .  A
C1263      C1271   1.383       .  A
C1263      C1274   1.417       .  A
C1264      C1272   1.390       .  A
C1264      C1275   1.422       .  A
C1265      C1266   1.376       .  A
C1265      H1277   1.082       .  S
C1266      H1278   1.082       .  S
C1267      C1268   1.370       .  A
C1267      H1279   1.081       .  S
C1268      H1280   1.082       .  S
C1269      C1270   1.365       .  A
C1269      H1281   1.081       .  S
C1270      H1282   1.082       .  S
C1271      C1272   1.369       .  A
C1271      H1283   1.082       .  S
C1272      H1284   1.082       .  S
C1273      C1534   1.504       .  S
C1274      C1520   1.509       .  S
C1275      C1394   1.503       .  S
C1276      C1380   1.514       .  S
N1287      C1292   1.350       .  A
N1287      C1291   1.351       .  A
N1287      H1319   1.036       .  S
N1288      C1295   1.352       .  A
N1288      C1296   1.349       .  A
N1289      C1294   1.358       .  A
N1289      C1293   1.359       .  A
N1289      H1320   1.041       .  S
N1290      C1297   1.350       .  A
N1290      C1298   1.350       .  A
C1291      C1299   1.387       .  A
C1291      C1307   1.414       .  A
C1292      C1308   1.414       .  A
C1292      C1300   1.388       .  A
C1293      C1301   1.389       .  A
C1293      C1310   1.432       .  A
C1294      C1309   1.424       .  A
C1294      C1302   1.384       .  A
C1295      C1307   1.411       .  A
C1295      C1303   1.385       .  A
C1296      C1310   1.414       .  A
C1296      C1304   1.387       .  A
C1297      C1305   1.387       .  A
C1297      C1308   1.411       .  A
C1298      C1306   1.387       .  A
C1298      C1309   1.411       .  A
C1299      C1300   1.379       .  A
C1299      H1311   1.082       .  S
C1300      H1312   1.082       .  S
C1301      C1302   1.385       .  A
C1301      H1313   1.082       .  S
C1302      H1314   1.082       .  S
C1303      C1304   1.374       .  A
C1303      H1315   1.082       .  S
C1304      H1316   1.082       .  S
C1305      C1306   1.368       .  A
C1305      H1317   1.082       .  S
C1306      H1318   1.082       .  S
C1307      C1503   1.494       .  S
C1308      C1489   1.487       .  S
C1309      C1422   1.509       .  S
C1310      C1408   1.520       .  S
C1321      C1322   1.413       .  A
C1321      C1326   1.409       .  A
C1322      C1323   1.407       .  A
C1322      C1327   1.452       .  S
C1323      C1324   1.414       .  A
C1323      C1330   1.452       .  S
C1324      C1325   1.416       .  A
C1325      C1326   1.406       .  A
C1325      C1328   1.452       .  S
C1326      C1329   1.453       .  S
C1327      N1334   1.158       .  T
C1328      N1333   1.157       .  T
C1329      N1331   1.157       .  T
C1330      N1332   1.157       .  T
C1335      C1336   1.414       .  A
C1335      C1340   1.416       .  A
C1336      C1337   1.411       .  A
C1336      C1341   1.452       .  S
C1337      C1338   1.420       .  A
C1337      C1344   1.452       .  S
C1338      C1339   1.412       .  A
C1339      C1340   1.415       .  A
C1339      C1342   1.450       .  S
C1340      C1343   1.450       .  S
C1341      N1348   1.157       .  T
C1342      N1347   1.157       .  T
C1343      N1345   1.157       .  T
C1344      N1346   1.158       .  T
C1349      C1350   1.409       .  A
C1349      C1354   1.410       .  A
C1350      C1351   1.408       .  A
C1350      C1355   1.453       .  S
C1351      C1352   1.420       .  A
C1351      C1358   1.450       .  S
C1352      C1353   1.416       .  A
C1353      C1354   1.413       .  A
C1353      C1356   1.451       .  S
C1354      C1357   1.450       .  S
C1355      N1362   1.157       .  T
C1356      N1361   1.157       .  T
C1357      N1359   1.157       .  T
C1358      N1360   1.158       .  T
C1363      C1364   1.412       .  A
C1363      C1368   1.409       .  A
C1364      C1365   1.405       .  A
C1364      C1369   1.452       .  S
C1365      C1366   1.407       .  A
C1365      C1372   1.451       .  S
C1366      C1367   1.415       .  A
C1367      C1368   1.410       .  A
C1367      C1370   1.451       .  S
C1368      C1371   1.450       .  S
C1369      N1376   1.157       .  T
C1370      N1375   1.157   1_565  T
C1371      N1373   1.157       .  T
C1372      N3142   1.157       .  T
N1374      C3140   1.157       .  T
C1377      C1378   1.410       .  A
C1377      C1382   1.407       .  A
C1378      C1379   1.421       .  A
C1378      C1383   1.448       .  S
C1379      C1380   1.420       .  A
C1379      C1386   1.448       .  S
C1380      C1381   1.416       .  A
C1381      C1382   1.401       .  A
C1381      C1384   1.453       .  S
C1382      C1385   1.446       .  S
C1383      N1390   1.157   1_554  T
C1384      N1389   1.157       .  T
C1385      N1387   1.156       .  T
C1386      N1388   1.157       .  T
C1391      C1392   1.426       .  A
C1391      C1396   1.422       .  A
C1392      C1393   1.403       .  A
C1392      C1397   1.452       .  S
C1393      C1394   1.407       .  A
C1393      C1400   1.453       .  S
C1394      C1395   1.412       .  A
C1395      C1396   1.417       .  A
C1395      C1398   1.450       .  S
C1396      C1399   1.450       .  S
C1397      N1404   1.157       .  T
C1398      N1403   1.157       .  T
C1399      N3169   1.158       .  T
C1400      N1402   1.156       .  T
N1401      C3167   1.157       .  T
C1405      C1406   1.417       .  A
C1405      C1410   1.428       .  A
C1406      C1407   1.414       .  A
C1406      C1411   1.449       .  S
C1407      C1408   1.421       .  A
C1407      C1414   1.452       .  S
C1408      C1409   1.413       .  A
C1409      C1410   1.420       .  A
C1409      C1412   1.452       .  S
C1410      C1413   1.447       .  S
C1411      N1418   1.158       .  T
C1412      N1417   1.158       .  T
C1413      N1415   1.156       .  T
C1414      N1416   1.158       .  T
C1419      C1420   1.424       .  A
C1419      C1424   1.433       .  A
C1420      C1421   1.423       .  A
C1420      C1425   1.449       .  S
C1421      C1422   1.411       .  A
C1421      C1428   1.450       .  S
C1422      C1423   1.410       .  A
C1423      C1424   1.413       .  A
C1423      C1426   1.455       .  S
C1424      C1427   1.453       .  S
C1425      N1432   1.157       .  T
C1426      N1431   1.157       .  T
C1427      N1429   1.158       .  T
C1428      N1430   1.157       .  T
C1433      C1434   1.411       .  A
C1433      C1438   1.432       .  A
C1434      C1435   1.420       .  A
C1434      C1439   1.446       .  S
C1435      C1436   1.421       .  A
C1435      C1442   1.443       .  S
C1436      C1437   1.405       .  A
C1436      C1461   1.536       .  S
C1437      C1438   1.403       .  A
C1437      C1440   1.445       .  S
C1438      C1441   1.454       .  S
C1439      N1446   1.157       .  T
C1440      N1445   1.157       .  T
C1441      N1443   1.158       .  T
C1442      N1444   1.157       .  T
C1447      C1448   1.416       .  A
C1447      C1452   1.413       .  A
C1448      C1449   1.406       .  A
C1448      C1453   1.451       .  S
C1449      C1450   1.403       .  A
C1449      C3224   1.441       .  S
C1450      C1451   1.421       .  A
C1450      C2898   1.500       .  S
C1451      C1452   1.416       .  A
C1451      C1454   1.449       .  S
C1452      C1455   1.451       .  S
C1453      N1460   1.157       .  T
C1454      N1459   1.157       .  T
C1455      N1457   1.157       .  T
C1456      C3217   1.441   1_455  S
C1456      N1458   1.157       .  T
C1461      C1462   1.421       .  A
C1461      C1466   1.410       .  A
C1462      C1463   1.414       .  A
C1462      C1467   1.446       .  S
C1463      C1464   1.413       .  A
C1463      C1470   1.445       .  S
C1464      C1465   1.417       .  A
C1465      C1466   1.413       .  A
C1465      C1468   1.446       .  S
C1466      C1469   1.444       .  S
C1467      N1474   1.157       .  T
C1468      N1473   1.157       .  T
C1469      N1471   1.157       .  T
C1470      N1472   1.157       .  T
C1475      C1476   1.418       .  A
C1475      C1480   1.428       .  A
C1475      C2879   1.525       .  S
C1476      C1477   1.414       .  A
C1476      C1481   1.456       .  S
C1477      C1478   1.426       .  A
C1477      C1484   1.447       .  S
C1478      C1479   1.417       .  A
C1479      C1480   1.426       .  A
C1479      C1482   1.453       .  S
C1480      C3251   1.448       .  S
C1481      N1488   1.157       .  T
C1482      N1487   1.158       .  T
C1483      C3248   1.447       .  S
C1483      N1485   1.157   1_655  T
C1484      N1486   1.157       .  T
C1489      C1490   1.402       .  A
C1489      C1494   1.409       .  A
C1490      C1491   1.401       .  A
C1490      C1495   1.457       .  S
C1491      C1492   1.421       .  A
C1491      C1498   1.442       .  S
C1492      C1493   1.419       .  A
C1493      C1494   1.416       .  A
C1493      C3264   1.448       .  S
C1494      C1497   1.449       .  S
C1495      N1502   1.157       .  T
C1496      C3261   1.448       .  S
C1496      N1501   1.158   1_655  T
C1497      N1499   1.157       .  T
C1498      N1500   1.153   1_565  T
C1503      C1504   1.409       .  A
C1503      C1508   1.404       .  A
C1504      C1505   1.417       .  A
C1504      C1509   1.451       .  S
C1505      C1506   1.424       .  A
C1505      C1512   1.450       .  S
C1506      C1507   1.428       .  A
C1507      C1508   1.407       .  A
C1507      C1510   1.448       .  S
C1508      C1511   1.455       .  S
C1509      N1516   1.157       .  T
C1510      N1515   1.157   1_565  T
C1511      N1513   1.157       .  T
C1512      N1514   1.158       .  T
C1517      C1518   1.414       .  A
C1517      C1522   1.419       .  A
C1518      C1519   1.419       .  A
C1518      C1523   1.449       .  S
C1519      C1520   1.414       .  A
C1519      C1526   1.449       .  S
C1520      C1521   1.411       .  A
C1521      C1522   1.414       .  A
C1521      C1524   1.452       .  S
C1522      C1525   1.450       .  S
C1523      N1530   1.157       .  T
C1524      N1529   1.157       .  T
C1526      N1528   1.157       .  T
C1531      C1532   1.410       .  A
C1531      C1536   1.411       .  A
C1532      C1533   1.414       .  A
C1532      C1537   1.450       .  S
C1533      C1534   1.417       .  A
C1533      C1540   1.451       .  S
C1534      C1535   1.414       .  A
C1535      C1536   1.410       .  A
C1535      C1538   1.452       .  S
C1536      C1539   1.451       .  S
C1537      N1544   1.157       .  T
C1538      N1543   1.157       .  T
C1539      N1541   1.157       .  T
C1540      N1542   1.157       .  T
C1545      C1546   1.425       .  A
C1545      C1550   1.428       .  A
C1546      C1547   1.419       .  A
C1546      C1551   1.448       .  S
C1547      C1548   1.409       .  A
C1547      C1554   1.452       .  S
C1548      C1549   1.405       .  A
C1549      C1550   1.408       .  A
C1549      C1552   1.455       .  S
C1550      C1553   1.449       .  S
C1551      N1558   1.158       .  T
C1552      N1557   1.157       .  T
C1553      N1555   1.157       .  T
C1554      N1556   1.157       .  T
C1559      C1560   1.410       .  A
C1559      C1564   1.412       .  A
C1560      C1561   1.413       .  A
C1560      C1565   1.451       .  S
C1561      C1562   1.418       .  A
C1561      C1568   1.450       .  S
C1562      C1563   1.411       .  A
C1563      C1564   1.405       .  A
C1563      C1566   1.452       .  S
C1564      C1567   1.452       .  S
C1565      N1572   1.158       .  T
C1566      N1571   1.157       .  T
C1567      N1569   1.157       .  T
C1568      N1570   1.158       .  T
C1573      C1574   1.415       .  A
C1573      C1578   1.412       .  A
C1574      C1575   1.414       .  A
C1574      C1579   1.451       .  S
C1575      C1576   1.411       .  A
C1575      C1582   1.450       .  S
C1576      C1577   1.414       .  A
C1577      C1578   1.408       .  A
C1577      C3348   1.452       .  S
C1578      C3349   1.450       .  S
C1579      N1586   1.157       .  T
C1580      C3345   1.452       .  S
C1580      N1585   1.157       .  T
C1581      C3346   1.451   1_455  S
C1581      N1583   1.157       .  T
C1582      N1584   1.157       .  T
C1587      C1588   1.417       .  A
C1587      C1592   1.419       .  A
C1588      C1589   1.406       .  A
C1588      C1593   1.446       .  S
C1589      C1590   1.411       .  A
C1589      C1596   1.454       .  S
C1590      C1591   1.407       .  A
C1591      C1592   1.416       .  A
C1591      C1594   1.448       .  S
C1592      C1595   1.449       .  S
C1593      N1600   1.155       .  T
C1594      N1599   1.157       .  T
C1595      N1597   1.157       .  T
C1596      N1598   1.158       .  T
C1601      C1602   1.413       .  A
C1601      C1606   1.405       .  A
C1602      C1603   1.429       .  A
C1602      C1607   1.446       .  S
C1603      C1604   1.424       .  A
C1603      C1610   1.447       .  S
C1604      C1605   1.412       .  A
C1605      C1606   1.401       .  A
C1605      C1608   1.450       .  S
C1606      C1609   1.441       .  S
C1607      N1614   1.157       .  T
C1608      N1613   1.157       .  T
C1609      N1611   1.156       .  T
C1610      N1612   1.157       .  T
C1615      C1616   1.417       .  A
C1615      C1620   1.412       .  A
C1616      C1617   1.411       .  A
C1616      C1621   1.446       .  S
C1617      C1618   1.406       .  A
C1617      C1624   1.447       .  S
C1618      C1619   1.410       .  A
C1619      C1620   1.403       .  A
C1619      C1622   1.442       .  S
C1620      C1623   1.449       .  S
C1621      N1628   1.157       .  T
C1622      N1627   1.155       .  T
C1623      N1625   1.157       .  T
C1624      N1626   1.157       .  T
C1629      C1630   1.413       .  A
C1629      C1634   1.421       .  A
C1630      C1631   1.412       .  A
C1630      C1635   1.451       .  S
C1631      C1632   1.419       .  A
C1631      C1638   1.451       .  S
C1632      C1633   1.400       .  A
C1633      C1634   1.403       .  A
C1633      C1636   1.449       .  S
C1634      C1637   1.452       .  S
C1635      N1642   1.157       .  T
C1636      N1641   1.157       .  T
C1637      N1639   1.157       .  T
C1638      N1640   1.158       .  T
C1643      C1644   1.415       .  A
C1643      C1648   1.417       .  A
C1644      C1645   1.418       .  A
C1644      C1649   1.450       .  S
C1645      C1646   1.414       .  A
C1645      C1652   1.449       .  S
C1646      C1647   1.416       .  A
C1647      C1648   1.415       .  A
C1647      C1650   1.450       .  S
C1648      C1651   1.452       .  S
C1649      N1656   1.157       .  T
C1650      N1655   1.157       .  T
C1651      N1653   1.157       .  T
C1652      N1654   1.157       .  T
C1657      C1658   1.411       .  A
C1657      C1662   1.413       .  A
C1658      C1659   1.405       .  A
C1658      C1663   1.448       .  S
C1659      C1660   1.409       .  A
C1659      C1666   1.452       .  S
C1660      C1661   1.409       .  A
C1661      C1662   1.410       .  A
C1661      C1664   1.450       .  S
C1662      C1665   1.450       .  S
C1663      N1670   1.155       .  T
C1664      N1669   1.157       .  T
C1665      N1667   1.157       .  T
C1666      N1668   1.157       .  T
C1671      C1672   1.408       .  A
C1671      C1676   1.405       .  A
C1672      C1673   1.409       .  A
C1672      C1677   1.450       .  S
C1673      C1674   1.416       .  A
C1673      C1680   1.451       .  S
C1674      C1675   1.420       .  A
C1675      C1676   1.411       .  A
C1675      C1678   1.450       .  S
C1676      C1679   1.450       .  S
C1677      N1684   1.157       .  T
C1678      N1683   1.157       .  T
C1679      N1681   1.158       .  T
C1680      N1682   1.157       .  T
C1685      C1686   1.426       .  A
C1685      C1690   1.418       .  A
C1686      C1687   1.420       .  A
C1686      C1691   1.450       .  S
C1687      C1688   1.408       .  A
C1687      C1694   1.448       .  S
C1688      C1689   1.413       .  A
C1689      C1690   1.411       .  A
C1689      C1692   1.447       .  S
C1690      C1693   1.448       .  S
C1691      N1698   1.157       .  T
C1692      N1697   1.156       .  T
C1693      N1695   1.157       .  T
C1694      N1696   1.157       .  T
C1699      C1700   1.431       .  A
C1699      C1704   1.416       .  A
C1700      C1701   1.404       .  A
C1700      C1705   1.450       .  S
C1701      C1702   1.403       .  A
C1701      C1708   1.455       .  S
C1702      C1703   1.414       .  A
C1703      C1704   1.420       .  A
C1703      C1706   1.449       .  S
C1704      C1707   1.448       .  S
C1705      N1712   1.156       .  T
C1706      N1711   1.157       .  T
C1707      N1709   1.157       .  T
C1708      N1710   1.157       .  T
C1713      C1714   1.417       .  A
C1713      C1718   1.417       .  A
C1714      C1715   1.412       .  A
C1714      C1719   1.450       .  S
C1715      C1716   1.409       .  A
C1715      C1722   1.450       .  S
C1716      C1717   1.412       .  A
C1717      C1718   1.417       .  A
C1717      C1720   1.450       .  S
C1718      C1721   1.448       .  S
C1719      N1726   1.157       .  T
C1720      N1725   1.158       .  T
C1721      N1723   1.157       .  T
C1722      N1724   1.157       .  T
C1727      C1728   1.409       .  A
C1727      C1732   1.411       .  A
C1728      C1729   1.406       .  A
C1728      C1733   1.452       .  S
C1729      C1730   1.410       .  A
C1729      C3504   1.446       .  S
C1730      C1731   1.411       .  A
C1731      C1732   1.411       .  A
C1731      C1734   1.449       .  S
C1732      C1735   1.450       .  S
C1733      N3508   1.157       .  T
C1734      N1739   1.157       .  T
C1735      N1737   1.157       .  T
C1736      C3497   1.445       .  S
C1736      N1738   1.155       .  T
N1740      C3501   1.157       .  T
C1741      C1742   1.416       .  A
C1741      C1746   1.414       .  A
C1742      C1743   1.421       .  A
C1742      C1747   1.448       .  S
C1743      C1744   1.423       .  A
C1743      C1750   1.449       .  S
C1744      C1745   1.415       .  A
C1745      C1746   1.405       .  A
C1745      C1748   1.446       .  S
C1746      C1749   1.449       .  S
C1747      N1754   1.157       .  T
C1748      N1753   1.156       .  T
C1749      N1751   1.157       .  T
C1750      N1752   1.157       .  T
C1755      C1756   1.416       .  A
C1755      C1760   1.416       .  A
C1756      C1757   1.421       .  A
C1756      C1761   1.449       .  S
C1757      C1758   1.418       .  A
C1757      C1764   1.450       .  S
C1758      C1759   1.421       .  A
C1759      C1760   1.415       .  A
C1759      C1762   1.452       .  S
C1760      C1763   1.453       .  S
C1761      N1768   1.157       .  T
C1762      N1767   1.158       .  T
C1763      N1765   1.157       .  T
C1764      N1766   1.157       .  T
N1769      C1774   1.350       .  A
N1769      C1773   1.352       .  A
N1769      H1801   1.041       .  S
N1770      C1777   1.355       .  A
N1770      C1778   1.352       .  A
N1771      C1776   1.360       .  A
N1771      C1775   1.359       .  A
N1771      H1802   1.041       .  S
N1772      C1779   1.352       .  A
N1772      C1780   1.351       .  A
C1773      C1781   1.388       .  A
C1773      C1789   1.413       .  A
C1774      C1790   1.409       .  A
C1774      C1782   1.386       .  A
C1775      C1783   1.389       .  A
C1775      C1792   1.433       .  A
C1776      C1791   1.427       .  A
C1776      C1784   1.386       .  A
C1777      C1789   1.414       .  A
C1777      C1785   1.383       .  A
C1778      C1792   1.423       .  A
C1778      C1786   1.390       .  A
C1779      C1787   1.384       .  A
C1779      C1790   1.409       .  A
C1780      C1788   1.389       .  A
C1780      C1791   1.417       .  A
C1781      C1782   1.374       .  A
C1781      H1793   1.082       .  S
C1782      H1794   1.082       .  S
C1783      C1784   1.384       .  A
C1783      H1795   1.082       .  S
C1784      H1796   1.080       .  S
C1785      C1786   1.378       .  A
C1785      H1797   1.082       .  S
C1786      H1798   1.082       .  S
C1787      C1788   1.367       .  A
C1787      H1799   1.082       .  S
C1788      H1800   1.082       .  S
C1789      C2597   1.507       .  S
C1790      C2611   1.490       .  S
C1791      C2639   1.515       .  S
C1792      C2628   1.526       .  S
N1803      C1808   1.353       .  A
N1803      C1807   1.350       .  A
N1803      H1835   1.042       .  S
N1804      C1811   1.346       .  A
N1804      C1812   1.351       .  A
N1805      C1810   1.351       .  A
N1805      C1809   1.360       .  A
N1805      H1836   1.042       .  S
N1806      C1813   1.354       .  A
N1806      C1814   1.348       .  A
C1807      C1815   1.388       .  A
C1807      C1823   1.413       .  A
C1808      C1824   1.414       .  A
C1808      C1816   1.386       .  A
C1809      C1817   1.388       .  A
C1809      C1826   1.431       .  A
C1810      C1825   1.419       .  A
C1810      C1818   1.386       .  A
C1811      C1823   1.405       .  A
C1811      C1819   1.384       .  A
C1812      C1826   1.420       .  A
C1812      C1820   1.389       .  A
C1813      C1821   1.383       .  A
C1813      C1824   1.409       .  A
C1814      C1822   1.390       .  A
C1814      C1825   1.414       .  A
C1815      C1816   1.379       .  A
C1815      H1827   1.082       .  S
C1816      H1828   1.082       .  S
C1817      C1818   1.387       .  A
C1817      H1829   1.082       .  S
C1818      H1830   1.082       .  S
C1819      C1820   1.378       .  A
C1819      H1831   1.082       .  S
C1820      H1832   1.082       .  S
C1821      C1822   1.374       .  A
C1821      H1833   1.082       .  S
C1822      H1834   1.081       .  S
C1823      C2544   1.486       .  S
C1824      C2558   1.507       .  S
C1825      C2586   1.493       .  S
C1826      C2569   1.533       .  S
O1837      C1845   1.294       .  A
O1837     Co1857   2.053       .  S
O1838      C1846   1.267       .  A
O1838     Co1858   2.029       .  S
O1839      C1847   1.268       .  A
O1839     Co1859   2.017       .  S
O1840      C1848   1.280       .  A
O1840     Co2744   1.932       .  S
O1841      C1847   1.264       .  A
O1841     Co1858   2.002       .  S
O1842      C1848   1.286       .  A
O1842     Co1857   2.031       .  S
O1843      C1846   1.262       .  A
O1843     Co1860   2.011       .  S
O1844      C1845   1.276       .  A
O1844     Co2743   1.922       .  S
C1845      C2642   1.511       .  S
C1846      C2485   1.504       .  S
C1847      C2625   1.514       .  S
C1848      C2502   1.486       .  S
O1849      C1862   1.250       .  A
O1849     Co1857   2.008       .  S
O1850      C1863   1.263       .  A
O1850     Co1858   1.981       .  S
O1851      C1864   1.261       .  A
O1851     Co2743   2.002       .  S
O1852      C1865   1.278       .  A
O1852     Co1860   2.020       .  S
O1853      C1865   1.261       .  A
O1853     Co1858   1.964       .  S
O1854      C1864   1.248       .  A
O1854     Co1857   1.960       .  S
O1855      C1862   1.250       .  A
O1855     Co2744   1.997       .  S
O1856      C1863   1.273       .  A
O1856     Co1859   2.037       .  S
Co1857     O2745   2.233       .  S
Co1858     O1861   2.088       .  S
Co1859     O2728   1.929   1_545  S
Co1859     O2735   2.006   1_545  S
Co1859     O1861   1.993       .  S
Co1860     O2724   1.933   1_545  S
Co1860     O2739   1.997   1_545  S
Co1860     O1861   1.987       .  S
O1861     Co2741   2.237   1_545  S
C1862      C2530   1.508       .  S
C1863      C2572   1.506       .  S
C1864      C2583   1.499       .  S
C1865      C2516   1.490       .  S
N1866      C1871   1.348       .  A
N1866      C1870   1.358       .  A
N1866      H1898   1.039       .  S
N1867      C1874   1.351       .  A
N1867      C1875   1.344       .  A
N1868      C1873   1.354       .  A
N1868      C1872   1.354       .  A
N1868      H1899   1.039       .  S
N1869      C1876   1.356       .  A
N1869      C1877   1.359       .  A
C1870      C1878   1.384       .  A
C1870      C1886   1.417       .  A
C1871      C1887   1.417       .  A
C1871      C1879   1.391       .  A
C1872      C1880   1.386       .  A
C1872      C1889   1.420       .  A
C1873      C1888   1.417       .  A
C1873      C1881   1.385       .  A
C1874      C1886   1.408       .  A
C1874      C1882   1.381       .  A
C1875      C1889   1.410       .  A
C1875      C1883   1.385       .  A
C1876      C1884   1.387       .  A
C1876      C1887   1.423       .  A
C1877      C1885   1.386       .  A
C1877      C1888   1.428       .  A
C1878      C1879   1.367       .  A
C1878      H1890   1.081       .  S
C1879      H1891   1.080       .  S
C1880      C1881   1.378       .  A
C1880      H1892   1.082       .  S
C1881      H1893   1.077       .  S
C1882      C1883   1.372       .  A
C1882      H1894   1.082       .  S
C1883      H1895   1.079       .  S
C1884      C1885   1.374       .  A
C1884      H1896   1.082       .  S
C1885      H1897   1.082       .  S
C1886      C2471   1.512       .  S
C1887      C2457   1.493       .  S
C1888      C2488   1.520       .  S
C1889      C2499   1.496       .  S
N1900      C1905   1.358       .  A
N1900      C1904   1.355       .  A
N1900      H1932   1.041       .  S
N1901      C1908   1.344       .  A
N1901      C1909   1.350       .  A
N1902      C1907   1.344       .  A
N1902      C1906   1.351       .  A
N1902      H1933   1.038       .  S
N1903      C1910   1.351       .  A
N1903      C1911   1.351       .  A
C1904      C1912   1.387       .  A
C1904      C1920   1.423       .  A
C1905      C1921   1.428       .  A
C1905      C1913   1.387       .  A
C1906      C1914   1.385       .  A
C1906      C1923   1.406       .  A
C1907      C1922   1.408       .  A
C1907      C1915   1.389       .  A
C1908      C1920   1.407       .  A
C1908      C1916   1.389       .  A
C1909      C1923   1.409       .  A
C1909      C1917   1.386       .  A
C1910      C1918   1.386       .  A
C1910      C1921   1.416       .  A
C1911      C1919   1.386       .  A
C1911      C1922   1.413       .  A
C1912      C1913   1.387       .  A
C1912      H1924   1.082       .  S
C1913      H1925   1.081       .  S
C1914      C1915   1.376       .  A
C1914      H1926   1.082       .  S
C1915      H1927   1.083       .  S
C1916      C1917   1.366       .  A
C1916      H1928   1.082       .  S
C1917      H1929   1.082       .  S
C1918      C1919   1.378       .  A
C1918      H1930   1.082       .  S
C1919      H1931   1.082       .  S
C1920      C2513   1.498       .  S
C1921      C2527   1.520       .  S
C1922      C2443   1.485       .  S
C1923      C2432   1.491       .  S
C1934      C1971   1.458       .  S
C1934      C2600   1.484       .  S
N1935      N1952   1.326       .  A
N1935      N1957   1.322       .  A
N1935     Co1972   2.110       .  S
C1936      N1961   1.355       .  A
C1936      H1981   1.079       .  S
H1937      C1978   1.081       .  S
C1938      N1962   1.346       .  A
C1938      H1967   1.081       .  S
C1938      C1942   1.462       .  S
N1940      C1978   1.332       .  A
N1940      N1947   1.318       .  A
N1940     Co1941   2.063       .  S
Co1941     N1944   2.098       .  S
Co1941     N1961   2.110       .  S
Co1941     N1948   2.093       .  S
Co1941    Cl1983   2.467       .  S
C1942      N1980   1.347       .  A
C1942      C2555   1.483       .  S
N1943      N1950   1.320       .  A
N1943      N1973   1.326       .  A
N1943     Co1976   2.076       .  S
N1944      N1962   1.322       .  A
N1944      N1980   1.323       .  A
N1945      C1974   1.343       .  A
H1946      C1971   1.081       .  S
N1948      N1966   1.315       .  A
N1948      N1953   1.328       .  A
C1949      N1953   1.361       .  A
C1949      C1977   1.463       .  S
C1949      C2390   1.513       .  S
N1950      C1965   1.337       .  A
N1950     Co1972   2.083       .  S
C1951      H1985   1.079       .  S
C1951      C1954   1.449       .  S
C1954      C2401   1.496       .  S
N1955      N1961   1.317       .  A
N1956      C1982   1.353       .  A
N1956      N1958   1.322       .  A
N1956     Co1972   2.121       .  S
N1958      N1986   1.318       .  A
N1958     Co1976   2.063       .  S
H1959      C1982   1.081       .  S
H1960      C1977   1.076       .  S
N1962     Co2860   2.087       .  S
N1963      N1975   1.333       .  A
N1963      N1979   1.320       .  A
N1963     Co1972   2.101       .  S
C1964      N1968   1.348       .  A
C1964      C2614   1.475       .  S
C1965      H1969   1.082       .  S
C1965      C1984   1.454       .  S
N1966      C1977   1.331       .  A
N1966     Co2860   2.071       .  S
C1970      N1986   1.340       .  A
C1970      C1982   1.474       .  S
C1970      C2415   1.484       .  S
Co1972    Cl2867   2.457       .  S
N1973      C1984   1.350       .  A
C1974      C2376   1.510       .  S
Co1976     N2846   2.077   1_545  S
Co1976     N2850   2.071   1_545  S
Co1976    Cl2867   2.446       .  S
Cl1983    Co2856   2.463       .  S
Cl1983    Co2860   2.439       .  S
C1984      C2541   1.478       .  S
O1988      C1996   1.256       .  A
O1988     Co2008   2.027       .  S
O1989      C1997   1.318       .  A
O1989     Co2009   2.117       .  S
O1990     Co2010   1.988       .  S
O1991      C1997   1.280       .  A
O1991     Co2008   1.864   1_556  S
O1992      C1998   1.258       .  A
O1993      C1996   1.244       .  A
O1993     Co2010   1.961       .  S
O1994      C1995   1.271       .  A
O1994     Co2009   1.958       .  S
C1996      C2261   1.485       .  S
C1997      C2348   1.487       .  S
C1998      C2275   1.507       .  S
O1999      C2012   1.270       .  A
O2000      C2013   1.280       .  A
O2000     Co2008   2.023   1_556  S
O2001      C2014   1.280       .  A
O2001     Co2009   2.092       .  S
O2002      C2015   1.290       .  A
O2002     Co2010   2.072       .  S
O2003      C2015   1.272       .  A
O2003     Co2008   1.975       .  S
O2005     Co2010   2.005       .  S
O2006      C2013   1.253       .  A
O2006     Co2009   1.919       .  S
Co2007     O2011   2.056       .  S
Co2008     O2011   2.001       .  S
Co2009     O2011   2.042   1_556  S
Co2010     O2011   2.046       .  S
C2012      C2303   1.515       .  S
C2013      C2317   1.489       .  S
C2015      C2289   1.530       .  S
N2016      C2021   1.354       .  A
N2016      C2020   1.344       .  A
N2016      H2048   1.042       .  S
N2017      C2024   1.351       .  A
N2017      C2025   1.354       .  A
N2018      C2023   1.349       .  A
N2018      C2022   1.353       .  A
N2018      H2049   1.039       .  S
N2019      C2026   1.348       .  A
N2019      C2027   1.346       .  A
C2020      C2028   1.379       .  A
C2020      C2036   1.402       .  A
C2021      C2037   1.411       .  A
C2021      C2029   1.387       .  A
C2022      C2030   1.389       .  A
C2022      C2039   1.418       .  A
C2023      C2038   1.410       .  A
C2023      C2031   1.385       .  A
C2024      C2036   1.416       .  A
C2024      C2032   1.375       .  A
C2025      C2039   1.419       .  A
C2025      C2033   1.387       .  A
C2026      C2034   1.384       .  A
C2026      C2037   1.406       .  A
C2027      C2035   1.388       .  A
C2027      C2038   1.409       .  A
C2028      C2029   1.381       .  A
C2028      H2040   1.078       .  S
C2029      H2041   1.082       .  S
C2030      C2031   1.377       .  A
C2030      H2042   1.082       .  S
C2031      H2043   1.082       .  S
C2032      C2033   1.367       .  A
C2032      H2044   1.073       .  S
C2033      H2045   1.081       .  S
C2034      C2035   1.374       .  A
C2034      H2046   1.082       .  S
C2035      H2047   1.082       .  S
C2036      C2072   1.525       .  S
C2037      C2233   1.496       .  S
C2038      C2247   1.484       .  S
C2039      C2331   1.507       .  S
N2050      C2055   1.358       .  A
N2050      C2054   1.352       .  A
N2050      H2082   1.040       .  S
N2051      C2058   1.350       .  A
N2051      C2059   1.357       .  A
N2052      C2057   1.345       .  A
N2052      C2056   1.347       .  A
N2052      H2083   1.046       .  S
N2053      C2060   1.337       .  A
N2053      C2061   1.345       .  A
C2054      C2062   1.388       .  A
C2054      C2070   1.418       .  A
C2055      C2071   1.421       .  A
C2055      C2063   1.388       .  A
C2056      C2064   1.387       .  A
C2056      C2073   1.408       .  A
C2057      C2072   1.408       .  A
C2057      C2065   1.385       .  A
C2058      C2070   1.419       .  A
C2058      C2066   1.386       .  A
C2059      C2073   1.428       .  A
C2059      C2067   1.387       .  A
C2060      C2068   1.389       .  A
C2060      C2071   1.406       .  A
C2061      C2069   1.382       .  A
C2061      C2072   1.402       .  A
C2062      C2063   1.376       .  A
C2062      H2074   1.083       .  S
C2063      H2075   1.082       .  S
C2064      C2065   1.390       .  A
C2064      H2076   1.082       .  S
C2065      H2077   1.082       .  S
C2066      C2067   1.385       .  A
C2066      H2078   1.082       .  S
C2067      H2079   1.082       .  S
C2068      C2069   1.381       .  A
C2068      H2080   1.082       .  S
C2069      H2081   1.079       .  S
C2070      C2219   1.500       .  S
C2071      C2208   1.485       .  S
C2073      C2362   1.539       .  S
C2084      N2102   1.356       .  A
C2084      C2474   1.483       .  S
N2085      N2102   1.330       .  A
N2085     Co2122   2.100       .  S
C2086      N2111   1.343       .  A
C2086      H2131   1.078       .  S
C2086      C2124   1.476       .  S
H2087      C2128   1.082       .  S
C2088      N2112   1.341       .  A
C2088      H2117   1.082       .  S
C2088      C2092   1.462       .  S
Co2089     N2107   2.064       .  S
Co2089     N2097   2.065       .  S
Co2089     N3013   2.071       .  S
Co2089     N2989   2.073       .  S
Co2089    Cl2133   2.411       .  S
N2090      C2128   1.338       .  A
N2090      N2097   1.317       .  A
N2090     Co2091   2.070       .  S
Co2091     N2094   2.085       .  S
Co2091     N2995   2.092       .  S
Co2091     N2982   2.064       .  S
Co2091    Cl2133   2.467       .  S
C2092      N2130   1.351       .  A
C2092      C2236   1.482       .  S
N2093      N2123   1.323       .  A
N2093     Co2126   2.079       .  S
N2094      N2112   1.318       .  A
N2094      N2130   1.324       .  A
N2095      C2124   1.348       .  A
N2095      N2105   1.319       .  A
H2096      C2121   1.082       .  S
N2097      N2118   1.319       .  A
N2098      N2116   1.315       .  A
N2098      N2103   1.321       .  A
N2098     Co2975   2.064   1_545  S
C2099      N2103   1.349       .  A
C2099      C2127   1.463       .  S
C2099      C2205   1.471       .  S
N2100      C2115   1.336       .  A
N2100     Co2122   2.072       .  S
C2101      N2129   1.326       .  A
C2101      H2135   1.073       .  S
C2104      N2125   1.355       .  A
C2104      C2460   1.472       .  S
N2105      N2111   1.315       .  A
N2105     Co2973   2.066   1_545  S
N2106      C2132   1.347   1_455  A
N2106     Co3006   2.110   1_455  S
N2107      C2121   1.330       .  A
N2108      N2136   1.319       .  A
N2108     Co3010   2.066   1_545  S
H2109      C2132   1.082       .  S
H2110      C2127   1.082       .  S
N2111     Co2975   2.092   1_545  S
N2112     Co2126   2.085       .  S
N2113      N2125   1.330   1_455  A
N2113     Co3006   2.082   1_455  S
C2114      N2118   1.346       .  A
C2114      C2128   1.461       .  S
C2114      C2446   1.474       .  S
C2115      H2119   1.082       .  S
C2115      C2134   1.456       .  S
N2116      C2127   1.338       .  A
N2116     Co3010   2.079   1_545  S
C2120      C2132   1.473       .  S
C2120      C2222   1.496       .  S
Co2122     N2990   2.111       .  S
Co2122     N2997   2.088       .  S
C2124      C2429   1.505       .  S
Co2126     N2992   2.075       .  S
Co2126     N3000   2.071       .  S
Co2126    Cl2133   2.423       .  S
N2129     Co2973   2.066   1_545  S
C2134      C2250   1.473       .  S
N2137      C2142   1.358       .  A
N2137      C2141   1.356       .  A
N2137      H2169   1.037       .  S
N2138      C2145   1.353       .  A
N2138      C2146   1.353       .  A
N2139      C2144   1.358       .  A
N2139      C2143   1.360       .  A
N2139      H2170   1.035       .  S
N2140      C2147   1.354       .  A
N2140      C2148   1.352       .  A
C2141      C2149   1.387       .  A
C2141      C2157   1.422       .  A
C2142      C2158   1.422       .  A
C2142      C2150   1.387       .  A
C2143      C2151   1.386       .  A
C2143      C2160   1.425       .  A
C2144      C2159   1.429       .  A
C2144      C2152   1.389       .  A
C2145      C2157   1.417       .  A
C2145      C2153   1.385       .  A
C2146      C2160   1.422       .  A
C2146      C2154   1.388       .  A
C2147      C2155   1.384       .  A
C2147      C2158   1.415       .  A
C2148      C2156   1.389       .  A
C2148      C2159   1.421       .  A
C2149      C2150   1.376       .  A
C2149      H2161   1.082       .  S
C2150      H2162   1.082       .  S
C2151      C2152   1.370       .  A
C2151      H2163   1.081       .  S
C2152      H2164   1.082       .  S
C2153      C2154   1.367       .  A
C2153      H2165   1.082       .  S
C2154      H2166   1.082       .  S
C2155      C2156   1.369       .  A
C2155      H2167   1.082       .  S
C2156      H2168   1.082       .  S
C2157      C2418   1.504       .  S
C2158      C2404   1.505       .  S
C2159      C2278   1.505       .  S
C2160      C2264   1.513       .  S
N2171      C2176   1.351       .  A
N2171      C2175   1.348       .  A
N2171      H2203   1.041       .  S
N2172      C2179   1.350       .  A
N2172      C2180   1.349       .  A
N2173      C2178   1.357       .  A
N2173      C2177   1.360       .  A
N2173      H2204   1.042       .  S
N2174      C2181   1.351       .  A
N2174      C2182   1.345       .  A
C2175      C2183   1.385       .  A
C2175      C2191   1.409       .  A
C2176      C2192   1.417       .  A
C2176      C2184   1.389       .  A
C2177      C2185   1.388       .  A
C2177      C2194   1.431       .  A
C2178      C2193   1.425       .  A
C2178      C2186   1.386       .  A
C2179      C2191   1.410       .  A
C2179      C2187   1.385       .  A
C2180      C2194   1.414       .  A
C2180      C2188   1.388       .  A
C2181      C2189   1.385       .  A
C2181      C2192   1.411       .  A
C2182      C2190   1.388       .  A
C2182      C2193   1.409       .  A
C2183      C2184   1.381       .  A
C2183      H2195   1.082       .  S
C2184      H2196   1.082       .  S
C2185      C2186   1.387       .  A
C2185      H2197   1.082       .  S
C2186      H2198   1.081       .  S
C2187      C2188   1.378       .  A
C2187      H2199   1.082       .  S
C2188      H2200   1.082       .  S
C2189      C2190   1.377       .  A
C2189      H2201   1.082       .  S
C2190      H2202   1.082       .  S
C2191      C2387   1.492       .  S
C2192      C2373   1.505       .  S
C2193      C2306   1.501       .  S
C2194      C2292   1.524       .  S
C2205      C2206   1.411       .  A
C2205      C2210   1.410       .  A
C2206      C2207   1.403       .  A
C2206      C2211   1.451       .  S
C2207      C2208   1.410       .  A
C2207      C2214   1.451       .  S
C2208      C2209   1.411       .  A
C2209      C2210   1.410       .  A
C2209      C2212   1.449       .  S
C2210      C2213   1.451       .  S
C2211      N2218   1.157   1_545  T
C2212      N2217   1.157       .  T
C2213      N2215   1.157       .  T
C2214      N2216   1.157       .  T
C2219      C2220   1.410       .  A
C2219      C2224   1.413       .  A
C2220      C2221   1.413       .  A
C2220      C2225   1.451       .  S
C2221      C2222   1.422       .  A
C2221      C2228   1.452       .  S
C2222      C2223   1.413       .  A
C2223      C2224   1.414       .  A
C2223      C2226   1.450       .  S
C2224      C2227   1.450       .  S
C2225      N2232   1.157       .  T
C2226      N2231   1.157       .  T
C2227      N2229   1.157       .  T
C2228      N2230   1.158   1_655  T
C2233      C2234   1.413       .  A
C2233      C2238   1.412       .  A
C2234      C2235   1.409       .  A
C2234      C2239   1.452       .  S
C2235      C2236   1.412       .  A
C2235      C2242   1.451       .  S
C2236      C2237   1.411       .  A
C2237      C2238   1.413       .  A
C2237      C2240   1.450       .  S
C2238      C2241   1.448       .  S
C2239      N2246   1.157       .  T
C2240      N2245   1.157       .  T
C2241      N2243   1.157       .  T
C2242      N2244   1.157       .  T
C2247      C2248   1.411       .  A
C2247      C2252   1.409       .  A
C2248      C2249   1.405       .  A
C2248      C2253   1.451       .  S
C2249      C2250   1.409       .  A
C2249      C2256   1.451       .  S
C2250      C2251   1.415       .  A
C2251      C2252   1.407       .  A
C2251      C2254   1.451       .  S
C2252      C2255   1.451       .  S
C2253      N2260   1.157       .  T
C2254      N2259   1.158       .  T
C2255      N2257   1.157       .  T
C2261      C2262   1.410       .  A
C2261      C2266   1.408       .  A
C2262      C2263   1.420       .  A
C2262      C2267   1.448       .  S
C2263      C2264   1.419       .  A
C2263      C2270   1.448       .  S
C2264      C2265   1.416       .  A
C2265      C2266   1.403       .  A
C2265      C2268   1.453       .  S
C2266      C2269   1.447       .  S
C2267      N2274   1.157   1_554  T
C2268      N2273   1.157       .  T
C2269      N2271   1.156       .  T
C2270      N2272   1.157       .  T
C2275      C2276   1.427       .  A
C2275      C2280   1.421       .  A
C2276      C2277   1.406       .  A
C2276      C2281   1.451       .  S
C2277      C2278   1.408       .  A
C2277      C2284   1.453       .  S
C2278      C2279   1.413       .  A
C2279      C2280   1.417       .  A
C2279      C2282   1.451       .  S
C2280      C2283   1.450       .  S
C2281      N2288   1.157       .  T
C2282      N2287   1.157       .  T
C2284      N2286   1.157       .  T
C2289      C2290   1.418       .  A
C2289      C2294   1.430       .  A
C2290      C2291   1.415       .  A
C2290      C2295   1.448       .  S
C2291      C2292   1.420       .  A
C2291      C2298   1.452       .  S
C2292      C2293   1.413       .  A
C2293      C2294   1.423       .  A
C2293      C2296   1.452       .  S
C2294      C2297   1.447       .  S
C2295      N2302   1.157       .  T
C2296      N2301   1.158       .  T
C2297      N2299   1.156       .  T
C2298      N2300   1.157       .  T
C2303      C2304   1.423       .  A
C2303      C2308   1.430       .  A
C2304      C2305   1.420       .  A
C2304      C2309   1.449       .  S
C2305      C2306   1.409       .  A
C2305      C2312   1.450       .  S
C2306      C2307   1.410       .  A
C2307      C2308   1.411       .  A
C2307      C2310   1.455       .  S
C2308      C2311   1.453       .  S
C2309      N2316   1.157       .  T
C2310      N2315   1.157       .  T
C2311      N2313   1.158       .  T
C2312      N2314   1.157       .  T
C2317      C2318   1.409       .  A
C2317      C2322   1.435       .  A
C2318      C2319   1.420       .  A
C2318      C2323   1.446       .  S
C2319      C2320   1.420       .  A
C2319      C2326   1.443       .  S
C2320      C2321   1.406       .  A
C2320      C2345   1.536       .  S
C2321      C2322   1.401       .  A
C2321      C2324   1.446       .  S
C2322      C2325   1.457       .  S
C2323      N2330   1.157       .  T
C2324      N2329   1.157       .  T
C2325      N2327   1.158       .  T
C2326      N2328   1.157       .  T
C2331      C2332   1.415       .  A
C2331      C2336   1.414       .  A
C2332      C2333   1.406       .  A
C2332      C2337   1.450       .  S
C2333      C2334   1.405       .  A
C2334      C2335   1.422       .  A
C2335      C2336   1.415       .  A
C2335      C2338   1.451       .  S
C2336      C2339   1.452       .  S
C2337      N2344   1.157       .  T
C2338      N2343   1.157       .  T
C2339      N2341   1.157       .  T
C2340      N2342   1.156       .  T
C2345      C2346   1.420       .  A
C2345      C2350   1.412       .  A
C2346      C2347   1.412       .  A
C2346      C2351   1.445       .  S
C2347      C2348   1.411       .  A
C2347      C2354   1.446       .  S
C2348      C2349   1.417       .  A
C2349      C2350   1.414       .  A
C2349      C2352   1.448       .  S
C2350      C2353   1.443       .  S
C2351      N2358   1.157       .  T
C2352      N2357   1.157   1_556  T
C2353      N2355   1.157       .  T
C2354      N2356   1.157       .  T
C2359      C2360   1.412       .  A
C2359      C2364   1.426       .  A
C2360      C2361   1.416       .  A
C2360      C2365   1.455       .  S
C2361      C2362   1.430       .  A
C2361      C2368   1.445       .  S
C2362      C2363   1.419       .  A
C2363      C2364   1.426       .  A
C2363      C2366   1.454       .  S
C2365      N2372   1.157       .  T
C2366      N2371   1.158       .  T
C2367      N2369   1.157       .  T
C2368      N2370   1.157       .  T
C2373      C2374   1.407       .  A
C2373      C2378   1.416       .  A
C2374      C2375   1.401       .  A
C2374      C2379   1.453       .  S
C2375      C2376   1.427       .  A
C2375      C2382   1.454       .  S
C2376      C2377   1.422       .  A
C2377      C2378   1.422       .  A
C2378      C2381   1.451       .  S
C2379      N2386   1.156       .  T
C2380      N2385   1.158       .  T
C2381      N2383   1.157       .  T
C2382      N2384   1.158       .  T
C2387      C2388   1.406       .  A
C2387      C2392   1.404       .  A
C2388      C2389   1.416       .  A
C2388      C2393   1.451       .  S
C2389      C2390   1.426       .  A
C2389      C2396   1.450       .  S
C2390      C2391   1.430       .  A
C2391      C2392   1.410       .  A
C2391      C2394   1.449       .  S
C2392      C2395   1.455       .  S
C2393      N2400   1.157       .  T
C2394      N2399   1.158       .  T
C2395      N2397   1.157       .  T
C2396      N2398   1.158       .  T
C2401      C2402   1.414       .  A
C2401      C2406   1.418       .  A
C2402      C2403   1.418       .  A
C2402      C2407   1.449       .  S
C2403      C2404   1.414       .  A
C2403      C2410   1.449       .  S
C2404      C2405   1.411       .  A
C2405      C2406   1.411       .  A
C2405      C2408   1.452       .  S
C2406      C2409   1.451       .  S
C2407      N2414   1.157       .  T
C2408      N2413   1.157       .  T
C2409      N3295   1.157   1_545  T
C2410      N2412   1.157       .  T
N2411      C3293   1.157       .  T
C2415      C2416   1.410       .  A
C2415      C2420   1.414       .  A
C2416      C2417   1.414       .  A
C2416      C2421   1.449       .  S
C2417      C2418   1.415       .  A
C2417      C2424   1.450       .  S
C2418      C2419   1.413       .  A
C2419      C2420   1.412       .  A
C2419      C2422   1.451       .  S
C2420      C2423   1.451       .  S
C2421      N2428   1.157       .  T
C2422      N2427   1.157       .  T
C2423      N2425   1.157       .  T
C2424      N2426   1.157       .  T
C2429      C2430   1.424       .  A
C2429      C2434   1.426       .  A
C2430      C2431   1.415       .  A
C2430      C2435   1.448       .  S
C2431      C2432   1.407       .  A
C2431      C2438   1.451       .  S
C2432      C2433   1.405       .  A
C2433      C2434   1.403       .  A
C2433      C2436   1.455       .  S
C2434      C2437   1.449       .  S
C2435      N2442   1.158       .  T
C2436      N2441   1.157       .  T
C2437      N2439   1.157       .  T
C2438      N2440   1.157       .  T
C2443      C2444   1.407       .  A
C2443      C2448   1.413       .  A
C2444      C2445   1.409       .  A
C2444      C2449   1.451       .  S
C2445      C2446   1.417       .  A
C2445      C2452   1.451       .  S
C2446      C2447   1.409       .  A
C2447      C2448   1.403       .  A
C2447      C2450   1.453       .  S
C2448      C2451   1.451       .  S
C2449      N2456   1.157       .  T
C2450      N2455   1.157       .  T
C2451      N2453   1.157       .  T
C2452      N2454   1.158       .  T
C2457      C2458   1.415       .  A
C2457      C2462   1.412   1_655  A
C2458      C2459   1.410       .  A
C2458      C2463   1.451       .  S
C2459      C2460   1.409       .  A
C2459      C2466   1.450       .  S
C2460      C2461   1.412   1_655  A
C2461      C2462   1.404       .  A
C2463      N2470   1.157       .  T
C2464      N2469   1.157       .  T
C2465      N2467   1.156       .  T
C2466      N2468   1.157       .  T
C2471      C2472   1.419       .  A
C2471      C2476   1.421       .  A
C2472      C2473   1.404       .  A
C2472      C2477   1.446       .  S
C2473      C2474   1.407       .  A
C2473      C2480   1.454       .  S
C2474      C2475   1.407       .  A
C2475      C2476   1.416       .  A
C2475      C2478   1.448       .  S
C2476      C2479   1.450       .  S
C2477      N2484   1.155       .  T
C2478      N2483   1.157       .  T
C2479      N2481   1.157       .  T
C2480      N2482   1.157       .  T
C2485      C2486   1.414       .  A
C2485      C2490   1.406       .  A
C2486      C2487   1.430       .  A
C2486      C2491   1.446       .  S
C2487      C2488   1.424       .  A
C2487      C2494   1.446       .  S
C2488      C2489   1.413       .  A
C2489      C2490   1.402       .  A
C2489      C2492   1.451       .  S
C2490      C2493   1.440       .  S
C2491      N2498   1.157       .  T
C2492      N2497   1.157       .  T
C2493      N2495   1.156       .  T
C2494      N2496   1.157   1_655  T
C2499      C2500   1.417       .  A
C2499      C2504   1.408       .  A
C2500      C2501   1.412       .  A
C2500      C2505   1.447       .  S
C2501      C2502   1.407       .  A
C2501      C2508   1.448       .  S
C2502      C2503   1.412       .  A
C2503      C2504   1.401       .  A
C2503      C2506   1.442       .  S
C2504      C2507   1.450       .  S
C2505      N2512   1.157       .  T
C2506      N2511   1.155       .  T
C2507      N2509   1.157       .  T
C2508      N2510   1.157       .  T
C2513      C2514   1.413       .  A
C2513      C2518   1.421       .  A
C2514      C2515   1.412       .  A
C2514      C2519   1.451       .  S
C2515      C2516   1.418       .  A
C2515      C2522   1.450       .  S
C2516      C2517   1.401       .  A
C2517      C2518   1.403       .  A
C2517      C2520   1.449       .  S
C2518      C2521   1.452       .  S
C2519      N2526   1.157       .  T
C2520      N2525   1.157       .  T
C2521      N2523   1.158       .  T
C2522      N2524   1.158       .  T
C2527      C2528   1.416       .  A
C2527      C2532   1.418       .  A
C2528      C2529   1.422       .  A
C2528      C2533   1.449       .  S
C2529      C2530   1.417       .  A
C2529      C2536   1.449       .  S
C2530      C2531   1.417       .  A
C2531      C2532   1.418       .  A
C2531      C2534   1.449       .  S
C2532      C2535   1.451       .  S
C2533      N2540   1.157       .  T
C2534      N2539   1.157       .  T
C2535      N2537   1.157       .  T
C2536      N2538   1.157       .  T
C2541      C2542   1.410       .  A
C2541      C2546   1.413       .  A
C2542      C2543   1.405       .  A
C2542      C2547   1.448       .  S
C2543      C2544   1.410       .  A
C2543      C2550   1.452       .  S
C2544      C2545   1.410       .  A
C2545      C2546   1.412       .  A
C2545      C2548   1.450       .  S
C2546      C2549   1.450       .  S
C2547      N2554   1.156       .  T
C2548      N2553   1.157       .  T
C2549      N2551   1.157       .  T
C2550      N2552   1.157       .  T
C2555      C2556   1.409       .  A
C2555      C2560   1.411       .  A
C2556      C2557   1.411       .  A
C2556      C2561   1.451       .  S
C2557      C2558   1.417       .  A
C2557      C2564   1.451       .  S
C2558      C2559   1.418       .  A
C2559      C2560   1.416       .  A
C2559      C2562   1.450       .  S
C2560      C2563   1.452       .  S
C2561      N2568   1.157       .  T
C2562      N2567   1.157       .  T
C2563      N2565   1.157       .  T
C2564      N2566   1.157       .  T
C2569      C2570   1.428       .  A
C2569      C2574   1.421       .  A
C2570      C2571   1.423       .  A
C2570      C2575   1.451       .  S
C2571      C2572   1.409       .  A
C2571      C2578   1.448       .  S
C2572      C2573   1.415       .  A
C2573      C2574   1.416       .  A
C2573      C2576   1.448       .  S
C2574      C2577   1.449       .  S
C2575      N2582   1.157       .  T
C2576      N2581   1.157       .  T
C2577      N2579   1.157       .  T
C2578      N2580   1.157       .  T
C2583      C2584   1.427       .  A
C2583      C2588   1.415       .  A
C2584      C2585   1.404       .  A
C2584      C2589   1.451       .  S
C2585      C2586   1.406       .  A
C2585      C2592   1.456       .  S
C2586      C2587   1.414       .  A
C2587      C2588   1.417       .  A
C2587      C2590   1.449       .  S
C2588      C2591   1.449       .  S
C2589      N2596   1.157       .  T
C2590      N2595   1.157       .  T
C2591      N2593   1.157       .  T
C2592      N2594   1.157       .  T
C2597      C2598   1.417       .  A
C2597      C2602   1.416       .  A
C2598      C2599   1.411       .  A
C2598      C2603   1.450       .  S
C2599      C2600   1.409       .  A
C2599      C2606   1.450       .  S
C2600      C2601   1.410       .  A
C2601      C2602   1.414       .  A
C2601      C2604   1.450       .  S
C2602      C2605   1.448       .  S
C2603      N2610   1.157       .  T
C2604      N2609   1.158   1_655  T
C2605      N2607   1.157       .  T
C2606      N2608   1.157       .  T
C2611      C2612   1.410       .  A
C2611      C2616   1.413       .  A
C2612      C2613   1.404       .  A
C2612      C2617   1.452   1_655  S
C2613      C2614   1.408       .  A
C2614      C2615   1.412       .  A
C2615      C2616   1.412       .  A
C2615      C2618   1.451       .  S
C2616      C2619   1.450       .  S
C2618      N2623   1.157       .  T
C2619      N2621   1.157       .  T
C2620      N2622   1.154       .  T
C2625      C2626   1.416       .  A
C2625      C2630   1.419       .  A
C2626      C2627   1.422       .  A
C2626      C2631   1.449       .  S
C2627      C2628   1.424       .  A
C2627      C2634   1.449       .  S
C2628      C2629   1.416       .  A
C2629      C2630   1.409       .  A
C2629      C2632   1.449       .  S
C2630      C2633   1.450       .  S
C2631      N2638   1.157       .  T
C2632      N2637   1.157       .  T
C2633      N2635   1.157       .  T
C2634      N2636   1.156       .  T
C2639      C2640   1.415       .  A
C2639      C2644   1.417       .  A
C2640      C2641   1.423       .  A
C2640      C2645   1.450       .  S
C2641      C2642   1.422       .  A
C2641      C2648   1.450       .  S
C2642      C2643   1.420       .  A
C2643      C2644   1.413       .  A
C2643      C2646   1.452       .  S
C2644      C2647   1.454       .  S
C2645      N2652   1.157       .  T
C2646      N2651   1.157       .  T
C2647      N2649   1.157       .  T
C2648      N2650   1.158       .  T
N2653      C2658   1.349       .  A
N2653      C2657   1.350       .  A
N2653      H2685   1.042       .  S
N2654      C2661   1.355       .  A
N2654      C2662   1.350       .  A
N2655      C2660   1.359       .  A
N2655      C2659   1.357       .  A
N2655      H2686   1.041       .  S
N2656      C2663   1.349       .  A
N2656      C2664   1.349       .  A
C2657      C2665   1.388       .  A
C2657      C2673   1.411       .  A
C2658      C2674   1.406       .  A
C2658      C2666   1.386       .  A
C2659      C2667   1.390       .  A
C2659      C2676   1.432       .  A
C2660      C2675   1.424       .  A
C2660      C2668   1.384       .  A
C2661      C2673   1.415       .  A
C2661      C2669   1.383       .  A
C2662      C2676   1.421       .  A
C2662      C2670   1.389       .  A
C2663      C2671   1.384       .  A
C2663      C2674   1.405       .  A
C2664      C2672   1.389       .  A
C2664      C2675   1.412       .  A
C2665      C2666   1.376       .  A
C2665      H2677   1.083       .  S
C2666      H2678   1.082       .  S
C2667      C2668   1.384       .  A
C2667      H2679   1.082       .  S
C2668      H2680   1.082       .  S
C2669      C2670   1.380       .  A
C2669      H2681   1.082       .  S
C2670      H2682   1.082       .  S
C2671      C2672   1.368       .  A
C2671      H2683   1.082       .  S
C2672      H2684   1.082       .  S
C2673      C3481   1.508       .  S
C2674      C3495   1.483       .  S
C2675      C3523   1.508       .  S
C2676      C3512   1.520       .  S
N2687      C2692   1.351       .  A
N2687      C2691   1.347       .  A
N2687      H2719   1.042       .  S
N2688      C2695   1.348       .  A
N2688      C2696   1.351       .  A
N2689      C2694   1.355       .  A
N2689      C2693   1.362       .  A
N2689      H2720   1.042       .  S
N2690      C2697   1.353       .  A
N2690      C2698   1.346       .  A
C2691      C2699   1.388       .  A
C2691      C2707   1.408       .  A
C2692      C2708   1.410       .  A
C2692      C2700   1.386       .  A
C2693      C2701   1.388       .  A
C2693      C2710   1.435       .  A
C2694      C2709   1.425       .  A
C2694      C2702   1.386       .  A
C2695      C2707   1.407       .  A
C2695      C2703   1.383       .  A
C2696      C2710   1.421       .  A
C2696      C2704   1.390       .  A
C2697      C2705   1.383       .  A
C2697      C2708   1.408       .  A
C2698      C2706   1.390       .  A
C2698      C2709   1.412       .  A
C2699      C2700   1.377       .  A
C2699      H2711   1.082       .  S
C2700      H2712   1.082       .  S
C2701      C2702   1.388       .  A
C2701      H2713   1.082       .  S
C2702      H2714   1.082       .  S
C2703      C2704   1.377       .  A
C2703      H2715   1.082       .  S
C2704      H2716   1.082       .  S
C2705      C2706   1.374       .  A
C2705      H2717   1.082       .  S
C2706      H2718   1.081       .  S
C2707      C3428   1.485       .  S
C2708      C3442   1.506       .  S
C2709      C3470   1.499       .  S
C2710      C3453   1.533       .  S
O2721      C2729   1.292       .  A
O2721     Co2741   2.047       .  S
O2722      C2730   1.267       .  A
O2722     Co2742   2.027       .  S
O2723      C2731   1.266       .  A
O2723     Co2743   2.008       .  S
O2724      C2732   1.280       .  A
O2725      C2731   1.265       .  A
O2725     Co2742   2.006       .  S
O2726      C2732   1.287       .  A
O2726     Co2741   2.032       .  S
O2727      C2730   1.262       .  A
O2727     Co2744   2.011       .  S
O2728      C2729   1.275       .  A
C2729      C3526   1.508       .  S
C2730      C3369   1.502       .  S
C2731      C3509   1.511       .  S
C2732      C3386   1.486       .  S
O2733      C2746   1.250       .  A
O2733     Co2741   2.010       .  S
O2734      C2747   1.262       .  A
O2734     Co2742   1.980       .  S
O2735      C2748   1.262       .  A
O2736      C2749   1.278       .  A
O2736     Co2744   2.018       .  S
O2737      C2749   1.258       .  A
O2737     Co2742   1.960       .  S
O2738      C2748   1.250       .  A
O2738     Co2741   1.963       .  S
O2739      C2746   1.250       .  A
O2740      C2747   1.276       .  A
O2740     Co2743   2.049       .  S
Co2742     O2745   2.086       .  S
Co2743     O2745   1.985       .  S
Co2744     O2745   1.997       .  S
C2746      C3414   1.508       .  S
C2747      C3456   1.509       .  S
C2748      C3467   1.506       .  S
C2749      C3400   1.486       .  S
N2750      C2755   1.349       .  A
N2750      C2754   1.357       .  A
N2750      H2782   1.039       .  S
N2751      C2758   1.352       .  A
N2751      C2759   1.346       .  A
N2752      C2757   1.354       .  A
N2752      C2756   1.354       .  A
N2752      H2783   1.039       .  S
N2753      C2760   1.356       .  A
N2753      C2761   1.359       .  A
C2754      C2762   1.385       .  A
C2754      C2770   1.417       .  A
C2755      C2771   1.416       .  A
C2755      C2763   1.390       .  A
C2756      C2764   1.386       .  A
C2756      C2773   1.420       .  A
C2757      C2772   1.416       .  A
C2757      C2765   1.385       .  A
C2758      C2770   1.409       .  A
C2758      C2766   1.382       .  A
C2759      C2773   1.413       .  A
C2759      C2767   1.386       .  A
C2760      C2768   1.387       .  A
C2760      C2771   1.423       .  A
C2761      C2769   1.386       .  A
C2761      C2772   1.427       .  A
C2762      C2763   1.369       .  A
C2762      H2774   1.082       .  S
C2763      H2775   1.081       .  S
C2764      C2765   1.378       .  A
C2764      H2776   1.082       .  S
C2765      H2777   1.077       .  S
C2766      C2767   1.372       .  A
C2766      H2778   1.082       .  S
C2767      H2779   1.079       .  S
C2768      C2769   1.373       .  A
C2768      H2780   1.082       .  S
C2769      H2781   1.082       .  S
C2770      C3355   1.510       .  S
C2771      C3341   1.495       .  S
C2772      C3372   1.517       .  S
C2773      C3383   1.499       .  S
N2784      C2789   1.358       .  A
N2784      C2788   1.354       .  A
N2784      H2816   1.041       .  S
N2785      C2792   1.345       .  A
N2785      C2793   1.351       .  A
N2786      C2791   1.344       .  A
N2786      C2790   1.354       .  A
N2786      H2817   1.039       .  S
N2787      C2794   1.354       .  A
N2787      C2795   1.352       .  A
C2788      C2796   1.387       .  A
C2788      C2804   1.421       .  A
C2789      C2805   1.426       .  A
C2789      C2797   1.388       .  A
C2790      C2798   1.384       .  A
C2790      C2807   1.409       .  A
C2791      C2806   1.410       .  A
C2791      C2799   1.390       .  A
C2792      C2804   1.408       .  A
C2792      C2800   1.389       .  A
C2793      C2807   1.410       .  A
C2793      C2801   1.386       .  A
C2794      C2802   1.386       .  A
C2794      C2805   1.419       .  A
C2795      C2803   1.386       .  A
C2795      C2806   1.415       .  A
C2796      C2797   1.385       .  A
C2796      H2808   1.082       .  S
C2797      H2809   1.082       .  S
C2798      C2799   1.375       .  A
C2798      H2810   1.082       .  S
C2799      H2811   1.082       .  S
C2800      C2801   1.363       .  A
C2800      H2812   1.082       .  S
C2801      H2813   1.081       .  S
C2802      C2803   1.378       .  A
C2802      H2814   1.082       .  S
C2803      H2815   1.082       .  S
C2804      C3397   1.495       .  S
C2805      C3411   1.521       .  S
C2806      C3327   1.485       .  S
C2807      C3316   1.497       .  S
C2818      C2855   1.459       .  S
C2818      C3484   1.487       .  S
N2819      N2836   1.326       .  A
N2819      N2841   1.321       .  A
N2819     Co2856   2.111       .  S
C2820      N2845   1.348       .  A
C2820      H2865   1.081       .  S
H2821      C2862   1.081       .  S
C2822      N2846   1.343       .  A
C2822      H2851   1.081       .  S
C2822      C2826   1.459       .  S
N2824      C2862   1.336       .  A
N2824      N2831   1.321       .  A
N2824     Co2825   2.078       .  S
Co2825     N2828   2.094       .  S
Co2825     N2845   2.105       .  S
Co2825     N2832   2.104       .  S
Co2825    Cl2867   2.456   1_565  S
C2826      N2864   1.348       .  A
C2826      C3439   1.478       .  S
N2827      N2834   1.321       .  A
N2827      N2857   1.327       .  A
N2827     Co2860   2.076       .  S
N2828      N2846   1.321       .  A
N2828      N2864   1.323       .  A
N2829      C2858   1.341       .  A
H2830      C2855   1.081       .  S
N2832      N2850   1.316       .  A
N2832      N2837   1.330       .  A
C2833      N2837   1.363       .  A
C2833      C2861   1.461       .  S
C2833      C3274   1.515       .  S
N2834      C2849   1.336       .  A
N2834     Co2856   2.087       .  S
C2835      H2869   1.080       .  S
C2835      C2838   1.446       .  S
C2838      C3285   1.490       .  S
N2839      N2845   1.320       .  A
N2840      C2866   1.352       .  A
N2840      N2842   1.323       .  A
N2840     Co2856   2.113       .  S
N2842      N2870   1.316       .  A
N2842     Co2860   2.064       .  S
H2843      C2866   1.081       .  S
H2844      C2861   1.077       .  S
N2847      N2859   1.335       .  A
N2847      N2863   1.318       .  A
N2847     Co2856   2.116       .  S
C2848      N2852   1.350       .  A
C2848      C3498   1.471       .  S
C2849      H2853   1.082       .  S
C2849      C2868   1.456       .  S
N2850      C2861   1.332       .  A
C2854      N2870   1.339       .  A
C2854      C2866   1.473       .  S
C2854      C3299   1.478       .  S
N2857      C2868   1.350       .  A
C2858      C3260   1.509       .  S
C2868      C3425   1.478       .  S
O2872      C2880   1.256       .  A
O2872     Co2892   2.025   1_554  S
O2873      C2881   1.315       .  A
O2873     Co2893   2.111       .  S
O2874     Co2894   1.988       .  S
O2875      C2881   1.279       .  A
O2875     Co2892   1.874       .  S
O2876      C2882   1.255       .  A
O2877      C2880   1.241       .  A
O2877     Co2894   1.953       .  S
O2878      C2879   1.269       .  A
O2878     Co2893   1.951       .  S
C2880      C3145   1.482       .  S
C2881      C3232   1.488       .  S
C2882      C3159   1.499       .  S
O2883      C2896   1.275       .  A
O2884      C2897   1.278       .  A
O2884     Co2892   2.015       .  S
O2885      C2898   1.281       .  A
O2885     Co2893   2.086       .  S
O2886      C2899   1.289       .  A
O2886     Co2894   2.074       .  S
O2887      C2899   1.272       .  A
O2887     Co2892   1.977   1_554  S
O2889     Co2894   2.005       .  S
O2890      C2897   1.255       .  A
O2890     Co2893   1.933       .  S
Co2891     O2895   2.061       .  S
Co2892     O2895   2.005   1_556  S
Co2893     O2895   2.046   1_556  S
Co2894     O2895   2.045       .  S
C2896      C3187   1.531       .  S
C2897      C3201   1.487       .  S
C2899      C3173   1.532       .  S
N2900      C2905   1.355       .  A
N2900      C2904   1.350       .  A
N2900      H2932   1.025       .  S
N2901      C2908   1.351       .  A
N2901      C2909   1.354       .  A
N2902      C2907   1.351       .  A
N2902      C2906   1.355       .  A
N2902      H2933   1.022       .  S
N2903      C2910   1.350       .  A
N2903      C2911   1.350       .  A
C2904      C2912   1.384       .  A
C2904      C2920   1.418       .  A
C2905      C2921   1.418       .  A
C2905      C2913   1.387       .  A
C2906      C2914   1.390       .  A
C2906      C2923   1.423       .  A
C2907      C2922   1.412       .  A
C2907      C2915   1.384       .  A
C2908      C2920   1.420       .  A
C2908      C2916   1.375       .  A
C2909      C2923   1.423       .  A
C2909      C2917   1.387       .  A
C2910      C2918   1.386       .  A
C2910      C2921   1.414       .  A
C2911      C2919   1.386       .  A
C2911      C2922   1.413       .  A
C2912      C2913   1.378       .  A
C2912      H2924   1.077       .  S
C2913      H2925   1.082       .  S
C2914      C2915   1.377       .  A
C2914      H2926   1.082       .  S
C2915      H2927   1.082       .  S
C2916      C2917   1.367       .  A
C2916      H2928   1.074       .  S
C2917      H2929   1.080       .  S
C2918      C2919   1.371       .  A
C2918      H2930   1.081       .  S
C2919      H2931   1.082       .  S
C2920      C2956   1.528       .  S
C2921      C3117   1.498       .  S
C2922      C3131   1.491       .  S
C2923      C3215   1.507       .  S
N2934      C2939   1.354       .  A
N2934      C2938   1.355       .  A
N2934      H2966   1.039       .  S
N2935      C2942   1.352       .  A
N2935      C2943   1.359       .  A
N2936      C2941   1.345       .  A
N2936      C2940   1.345       .  A
N2936      H2967   1.045       .  S
N2937      C2944   1.338       .  A
N2937      C2945   1.344       .  A
C2938      C2946   1.393       .  A
C2938      C2954   1.425       .  A
C2939      C2955   1.411       .  A
C2939      C2947   1.382       .  A
C2940      C2948   1.388       .  A
C2940      C2957   1.408       .  A
C2941      C2956   1.406       .  A
C2941      C2949   1.386       .  A
C2942      C2954   1.426       .  A
C2942      C2950   1.385       .  A
C2943      C2957   1.435       .  A
C2943      C2951   1.388       .  A
C2944      C2952   1.384       .  A
C2944      C2955   1.395       .  A
C2945      C2953   1.386       .  A
C2945      C2956   1.390       .  A
C2946      C2947   1.371       .  A
C2946      H2958   1.081       .  S
C2947      H2959   1.082       .  S
C2948      C2949   1.390       .  A
C2948      H2960   1.082       .  S
C2949      H2961   1.082       .  S
C2950      C2951   1.385       .  A
C2950      H2962   1.082       .  S
C2951      H2963   1.081       .  S
C2952      C2953   1.379       .  A
C2952      H2964   1.082       .  S
C2953      H2965   1.082       .  S
C2954      C3103   1.508       .  S
C2955      C3092   1.485       .  S
C2957      C3246   1.535       .  S
C2968      N2986   1.356       .  A
C2968      C3358   1.486       .  S
N2969      N2986   1.330       .  A
N2969     Co3006   2.102   1_565  S
C2970      N2995   1.345       .  A
C2970      H3015   1.078       .  S
C2970      C3008   1.478       .  S
H2971      C3012   1.081       .  S
C2972      N2996   1.341       .  A
C2972      H3001   1.081       .  S
C2972      C2976   1.467       .  S
Co2973     N2991   2.060       .  S
Co2973     N2981   2.062       .  S
Co2973    Cl3017   2.402       .  S
N2974      C3012   1.342       .  A
N2974      N2981   1.317       .  A
N2974     Co2975   2.074       .  S
Co2975     N2978   2.091       .  S
Co2975    Cl3017   2.468       .  S
C2976      N3014   1.354       .  A
C2976      C3120   1.497       .  S
N2977      N3007   1.323       .  A
N2977     Co3010   2.088       .  S
N2978      N2996   1.319       .  A
N2978      N3014   1.325       .  A
N2979      C3008   1.349       .  A
N2979      N2989   1.319       .  A
H2980      C3005   1.082       .  S
N2981      N3002   1.318       .  A
N2982      N3000   1.317       .  A
N2982      N2987   1.321       .  A
C2983      N2987   1.348       .  A
C2983      C3011   1.457       .  S
C2983      C3089   1.471       .  S
N2984      C2999   1.338       .  A
N2984     Co3006   2.074   1_565  S
C2985      N3013   1.329       .  A
C2985      H3019   1.074       .  S
C2988      N3009   1.355       .  A
C2988      C3344   1.478       .  S
N2989      N2995   1.315       .  A
N2990      C3016   1.348       .  A
N2991      C3005   1.328       .  A
N2992      N3020   1.321       .  A
H2993      C3016   1.082       .  S
H2994      C3011   1.082       .  S
N2996     Co3010   2.089       .  S
N2997      N3009   1.330       .  A
C2998      N3002   1.345       .  A
C2998      C3012   1.464       .  S
C2998      C3330   1.480       .  S
C2999      H3003   1.082       .  S
C2999      C3018   1.457       .  S
N3000      C3011   1.335       .  A
C3004      C3016   1.473       .  S
C3004      C3106   1.495       .  S
C3008      C3313   1.509       .  S
Co3010    Cl3017   2.417       .  S
C3018      C3134   1.477       .  S
N3021      C3026   1.354       .  A
N3021      C3025   1.354       .  A
N3021      H3053   1.053       .  S
N3022      C3029   1.351       .  A
N3022      C3030   1.352       .  A
N3023      C3028   1.354       .  A
N3023      C3027   1.359       .  A
N3023      H3054   1.051       .  S
N3024      C3031   1.355       .  A
N3024      C3032   1.352       .  A
C3025      C3033   1.389       .  A
C3025      C3041   1.428       .  A
C3026      C3042   1.423       .  A
C3026      C3034   1.386       .  A
C3027      C3035   1.385       .  A
C3027      C3044   1.422       .  A
C3028      C3043   1.428       .  A
C3028      C3036   1.390       .  A
C3029      C3041   1.418       .  A
C3029      C3037   1.388       .  A
C3030      C3044   1.416       .  A
C3030      C3038   1.386       .  A
C3031      C3039   1.385       .  A
C3031      C3042   1.418       .  A
C3032      C3040   1.388       .  A
C3032      C3043   1.418       .  A
C3033      C3034   1.377       .  A
C3033      H3045   1.082       .  S
C3034      H3046   1.082       .  S
C3035      C3036   1.369       .  A
C3035      H3047   1.081       .  S
C3036      H3048   1.081       .  S
C3037      C3038   1.367       .  A
C3037      H3049   1.080       .  S
C3038      H3050   1.082       .  S
C3039      C3040   1.366       .  A
C3039      H3051   1.082       .  S
C3040      H3052   1.081       .  S
C3041      C3302   1.502       .  S
C3042      C3288   1.505       .  S
C3043      C3162   1.499       .  S
C3044      C3148   1.513       .  S
N3055      C3060   1.351       .  A
N3055      C3059   1.350       .  A
N3055      H3087   1.041       .  S
N3056      C3063   1.352       .  A
N3056      C3064   1.349       .  A
N3057      C3062   1.360       .  A
N3057      C3061   1.362       .  A
N3057      H3088   1.042       .  S
N3058      C3065   1.350       .  A
N3058      C3066   1.347       .  A
C3059      C3067   1.385       .  A
C3059      C3075   1.410       .  A
C3060      C3076   1.418       .  A
C3060      C3068   1.389       .  A
C3061      C3069   1.389       .  A
C3061      C3078   1.437       .  A
C3062      C3077   1.430       .  A
C3062      C3070   1.384       .  A
C3063      C3075   1.411       .  A
C3063      C3071   1.384       .  A
C3064      C3078   1.417       .  A
C3064      C3072   1.388       .  A
C3065      C3073   1.385       .  A
C3065      C3076   1.410       .  A
C3066      C3074   1.387       .  A
C3066      C3077   1.410       .  A
C3067      C3068   1.381       .  A
C3067      H3079   1.082       .  S
C3068      H3080   1.082       .  S
C3069      C3070   1.388       .  A
C3069      H3081   1.082       .  S
C3070      H3082   1.081       .  S
C3071      C3072   1.379       .  A
C3071      H3083   1.082       .  S
C3072      H3084   1.082       .  S
C3073      C3074   1.376       .  A
C3073      H3085   1.082       .  S
C3074      H3086   1.082       .  S
C3075      C3271   1.498       .  S
C3076      C3257   1.503       .  S
C3077      C3190   1.513       .  S
C3078      C3176   1.530       .  S
C3089      C3090   1.414       .  A
C3089      C3094   1.409       .  A
C3090      C3091   1.405       .  A
C3090      C3095   1.452       .  S
C3091      C3092   1.414       .  A
C3091      C3098   1.453       .  S
C3092      C3093   1.413       .  A
C3093      C3094   1.403       .  A
C3093      C3096   1.452       .  S
C3094      C3097   1.452       .  S
C3095      N3102   1.158       .  T
C3096      N3101   1.157       .  T
C3097      N3099   1.157       .  T
C3098      N3100   1.157       .  T
C3103      C3104   1.414       .  A
C3103      C3108   1.416       .  A
C3104      C3105   1.414       .  A
C3104      C3109   1.452       .  S
C3105      C3106   1.418       .  A
C3105      C3112   1.451       .  S
C3106      C3107   1.411       .  A
C3107      C3108   1.416       .  A
C3107      C3110   1.450       .  S
C3108      C3111   1.449       .  S
C3109      N3116   1.157       .  T
C3110      N3115   1.157       .  T
C3111      N3113   1.157       .  T
C3112      N3114   1.157       .  T
C3117      C3118   1.410       .  A
C3117      C3122   1.410       .  A
C3118      C3119   1.411       .  A
C3118      C3123   1.453       .  S
C3119      C3120   1.420       .  A
C3119      C3126   1.450       .  S
C3120      C3121   1.418       .  A
C3121      C3122   1.414       .  A
C3121      C3124   1.451       .  S
C3122      C3125   1.451       .  S
C3123      N3130   1.157       .  T
C3124      N3129   1.157       .  T
C3125      N3127   1.157       .  T
C3126      N3128   1.158       .  T
C3131      C3132   1.412       .  A
C3131      C3136   1.412       .  A
C3132      C3133   1.406       .  A
C3132      C3137   1.451       .  S
C3133      C3134   1.408       .  A
C3133      C3140   1.451       .  S
C3134      C3135   1.415       .  A
C3135      C3136   1.412       .  A
C3135      C3138   1.451       .  S
C3136      C3139   1.451       .  S
C3137      N3144   1.157       .  T
C3138      N3143   1.158   1_565  T
C3139      N3141   1.157       .  T
C3145      C3146   1.408       .  A
C3145      C3150   1.410       .  A
C3146      C3147   1.417       .  A
C3146      C3151   1.449       .  S
C3147      C3148   1.420       .  A
C3147      C3154   1.449       .  S
C3148      C3149   1.419       .  A
C3149      C3150   1.403       .  A
C3149      C3152   1.453       .  S
C3150      C3153   1.450       .  S
C3151      N3158   1.157   1_554  T
C3152      N3157   1.158       .  T
C3153      N3155   1.157       .  T
C3154      N3156   1.157       .  T
C3159      C3160   1.424       .  A
C3159      C3164   1.419       .  A
C3160      C3161   1.400       .  A
C3160      C3165   1.449       .  S
C3161      C3162   1.405       .  A
C3161      C3168   1.453       .  S
C3162      C3163   1.414       .  A
C3163      C3164   1.417       .  A
C3163      C3166   1.450       .  S
C3164      C3167   1.450       .  S
C3165      N3172   1.157       .  T
C3166      N3171   1.157       .  T
C3168      N3170   1.157       .  T
C3173      C3174   1.420       .  A
C3173      C3178   1.429       .  A
C3174      C3175   1.421       .  A
C3174      C3179   1.450       .  S
C3175      C3176   1.424       .  A
C3175      C3182   1.452       .  S
C3176      C3177   1.414       .  A
C3177      C3178   1.424       .  A
C3177      C3180   1.452       .  S
C3178      C3181   1.447       .  S
C3179      N3186   1.157       .  T
C3180      N3185   1.158       .  T
C3181      N3183   1.157       .  T
C3182      N3184   1.158       .  T
C3187      C3188   1.427       .  A
C3187      C3192   1.434       .  A
C3188      C3189   1.425       .  A
C3188      C3193   1.449       .  S
C3189      C3190   1.411       .  A
C3189      C3196   1.450       .  S
C3190      C3191   1.412       .  A
C3191      C3192   1.417       .  A
C3191      C3194   1.454       .  S
C3192      C3195   1.453       .  S
C3193      N3200   1.157       .  T
C3194      N3199   1.157       .  T
C3195      N3197   1.158       .  T
C3196      N3198   1.157       .  T
C3201      C3202   1.409       .  A
C3201      C3206   1.432       .  A
C3202      C3203   1.418       .  A
C3202      C3207   1.447       .  S
C3203      C3204   1.423       .  A
C3203      C3210   1.443       .  S
C3204      C3205   1.406       .  A
C3204      C3229   1.536       .  S
C3205      C3206   1.403       .  A
C3205      C3208   1.445       .  S
C3206      C3209   1.454       .  S
C3207      N3214   1.157       .  T
C3208      N3213   1.157       .  T
C3209      N3211   1.158       .  T
C3210      N3212   1.157       .  T
C3215      C3216   1.415       .  A
C3215      C3220   1.416       .  A
C3216      C3217   1.402       .  A
C3216      C3221   1.449       .  S
C3217      C3218   1.401       .  A
C3218      C3219   1.419       .  A
C3219      C3220   1.415       .  A
C3219      C3222   1.449       .  S
C3220      C3223   1.450       .  S
C3221      N3228   1.157       .  T
C3222      N3227   1.157       .  T
C3223      N3225   1.157       .  T
C3224      N3226   1.157       .  T
C3229      C3230   1.422       .  A
C3229      C3234   1.411       .  A
C3230      C3231   1.412       .  A
C3230      C3235   1.445       .  S
C3231      C3232   1.411       .  A
C3231      C3238   1.446       .  S
C3232      C3233   1.417       .  A
C3233      C3234   1.414       .  A
C3233      C3236   1.447       .  S
C3234      C3237   1.444       .  S
C3235      N3242   1.157       .  T
C3236      N3241   1.157       .  T
C3237      N3239   1.157       .  T
C3238      N3240   1.157       .  T
C3243      C3244   1.415       .  A
C3243      C3248   1.427       .  A
C3244      C3245   1.414       .  A
C3244      C3249   1.456       .  S
C3245      C3246   1.428       .  A
C3245      C3252   1.445       .  S
C3246      C3247   1.415       .  A
C3247      C3248   1.424       .  A
C3247      C3250   1.453       .  S
C3249      N3256   1.157       .  T
C3250      N3255   1.158       .  T
C3251      N3253   1.157       .  T
C3252      N3254   1.157       .  T
C3257      C3258   1.406       .  A
C3257      C3262   1.416       .  A
C3258      C3259   1.400       .  A
C3258      C3263   1.454       .  S
C3259      C3260   1.428       .  A
C3259      C3266   1.454       .  S
C3260      C3261   1.421       .  A
C3261      C3262   1.420       .  A
C3262      C3265   1.451       .  S
C3263      N3270   1.156       .  T
C3264      N3269   1.158       .  T
C3265      N3267   1.157       .  T
C3266      N3268   1.158       .  T
C3271      C3272   1.408       .  A
C3271      C3276   1.405       .  A
C3272      C3273   1.418       .  A
C3272      C3277   1.450       .  S
C3273      C3274   1.424       .  A
C3273      C3280   1.450       .  S
C3274      C3275   1.430       .  A
C3275      C3276   1.412       .  A
C3275      C3278   1.449       .  S
C3276      C3279   1.454       .  S
C3277      N3284   1.157       .  T
C3278      N3283   1.158   1_565  T
C3279      N3281   1.157       .  T
C3280      N3282   1.158       .  T
C3285      C3286   1.412       .  A
C3285      C3290   1.416       .  A
C3286      C3287   1.417       .  A
C3286      C3291   1.449       .  S
C3287      C3288   1.415       .  A
C3287      C3294   1.449       .  S
C3288      C3289   1.412       .  A
C3289      C3290   1.409       .  A
C3289      C3292   1.452       .  S
C3290      C3293   1.452       .  S
C3291      N3298   1.157       .  T
C3292      N3297   1.157       .  T
C3294      N3296   1.157       .  T
C3299      C3300   1.408       .  A
C3299      C3304   1.412       .  A
C3300      C3301   1.412       .  A
C3300      C3305   1.450       .  S
C3301      C3302   1.417       .  A
C3301      C3308   1.451       .  S
C3302      C3303   1.414       .  A
C3303      C3304   1.410       .  A
C3303      C3306   1.452       .  S
C3304      C3307   1.452       .  S
C3305      N3312   1.157       .  T
C3306      N3311   1.157       .  T
C3307      N3309   1.157       .  T
C3308      N3310   1.157       .  T
C3313      C3314   1.424       .  A
C3313      C3318   1.426       .  A
C3314      C3315   1.418       .  A
C3314      C3319   1.448       .  S
C3315      C3316   1.409       .  A
C3315      C3322   1.452       .  S
C3316      C3317   1.406       .  A
C3317      C3318   1.405       .  A
C3317      C3320   1.455       .  S
C3318      C3321   1.450       .  S
C3319      N3326   1.158       .  T
C3320      N3325   1.157       .  T
C3321      N3323   1.157       .  T
C3322      N3324   1.157       .  T
C3327      C3328   1.408       .  A
C3327      C3332   1.411       .  A
C3328      C3329   1.411       .  A
C3328      C3333   1.451       .  S
C3329      C3330   1.419       .  A
C3329      C3336   1.450       .  S
C3330      C3331   1.413       .  A
C3331      C3332   1.403       .  A
C3331      C3334   1.454       .  S
C3332      C3335   1.452       .  S
C3333      N3340   1.157       .  T
C3334      N3339   1.157       .  T
C3335      N3337   1.157       .  T
C3336      N3338   1.158       .  T
C3341      C3342   1.415       .  A
C3341      C3346   1.411       .  A
C3342      C3343   1.412       .  A
C3342      C3347   1.451       .  S
C3343      C3344   1.410       .  A
C3343      C3350   1.450       .  S
C3344      C3345   1.413   1_655  A
C3345      C3346   1.405   1_455  A
C3347      N3354   1.157       .  T
C3348      N3353   1.157       .  T
C3349      N3351   1.157       .  T
C3350      N3352   1.157       .  T
C3355      C3356   1.417       .  A
C3355      C3360   1.420       .  A
C3356      C3357   1.405       .  A
C3356      C3361   1.446       .  S
C3357      C3358   1.409       .  A
C3357      C3364   1.454       .  S
C3358      C3359   1.407       .  A
C3359      C3360   1.416       .  A
C3359      C3362   1.448       .  S
C3360      C3363   1.449       .  S
C3361      N3368   1.155       .  T
C3362      N3367   1.157       .  T
C3363      N3365   1.157       .  T
C3364      N3366   1.158       .  T
C3369      C3370   1.413       .  A
C3369      C3374   1.404       .  A
C3370      C3371   1.430       .  A
C3370      C3375   1.446       .  S
C3371      C3372   1.425       .  A
C3371      C3378   1.446       .  S
C3372      C3373   1.412       .  A
C3373      C3374   1.399       .  A
C3373      C3376   1.451       .  S
C3374      C3377   1.440       .  S
C3375      N3382   1.157       .  T
C3376      N3381   1.157       .  T
C3377      N3379   1.156       .  T
C3378      N3380   1.157   1_655  T
C3383      C3384   1.416       .  A
C3383      C3388   1.410       .  A
C3384      C3385   1.411       .  A
C3384      C3389   1.447       .  S
C3385      C3386   1.408       .  A
C3385      C3392   1.448       .  S
C3386      C3387   1.412       .  A
C3387      C3388   1.403       .  A
C3387      C3390   1.444       .  S
C3388      C3391   1.449       .  S
C3389      N3396   1.157       .  T
C3390      N3395   1.155       .  T
C3391      N3393   1.157       .  T
C3392      N3394   1.157       .  T
C3397      C3398   1.412       .  A
C3397      C3402   1.420       .  A
C3398      C3399   1.411       .  A
C3398      C3403   1.452       .  S
C3399      C3400   1.419       .  A
C3399      C3406   1.450       .  S
C3400      C3401   1.400       .  A
C3401      C3402   1.403       .  A
C3401      C3404   1.450       .  S
C3402      C3405   1.452       .  S
C3403      N3410   1.157       .  T
C3404      N3409   1.157       .  T
C3405      N3407   1.157       .  T
C3406      N3408   1.158       .  T
C3411      C3412   1.417       .  A
C3411      C3416   1.418       .  A
C3412      C3413   1.422       .  A
C3412      C3417   1.450       .  S
C3413      C3414   1.416       .  A
C3413      C3420   1.448       .  S
C3414      C3415   1.417       .  A
C3415      C3416   1.418       .  A
C3415      C3418   1.449       .  S
C3416      C3419   1.451       .  S
C3417      N3424   1.157       .  T
C3418      N3423   1.157       .  T
C3419      N3421   1.157       .  T
C3420      N3422   1.157       .  T
C3425      C3426   1.409       .  A
C3425      C3430   1.411       .  A
C3426      C3427   1.404       .  A
C3426      C3431   1.446       .  S
C3427      C3428   1.408       .  A
C3427      C3434   1.451       .  S
C3428      C3429   1.412       .  A
C3429      C3430   1.412       .  A
C3429      C3432   1.450       .  S
C3430      C3433   1.450       .  S
C3431      N3438   1.155       .  T
C3432      N3437   1.157       .  T
C3433      N3435   1.157       .  T
C3434      N3436   1.157       .  T
C3439      C3440   1.408       .  A
C3439      C3444   1.408       .  A
C3440      C3441   1.408       .  A
C3440      C3445   1.451       .  S
C3441      C3442   1.419       .  A
C3441      C3448   1.451       .  S
C3442      C3443   1.419       .  A
C3443      C3444   1.412       .  A
C3443      C3446   1.450       .  S
C3444      C3447   1.450       .  S
C3445      N3452   1.157       .  T
C3446      N3451   1.157       .  T
C3447      N3449   1.158       .  T
C3448      N3450   1.157       .  T
C3453      C3454   1.428       .  A
C3453      C3458   1.419       .  A
C3454      C3455   1.425       .  A
C3454      C3459   1.450       .  S
C3455      C3456   1.410       .  A
C3455      C3462   1.448       .  S
C3456      C3457   1.414       .  A
C3457      C3458   1.415       .  A
C3457      C3460   1.447       .  S
C3458      C3461   1.447       .  S
C3459      N3466   1.157       .  T
C3460      N3465   1.156       .  T
C3461      N3463   1.157       .  T
C3462      N3464   1.157       .  T
C3467      C3468   1.428       .  A
C3467      C3472   1.418       .  A
C3468      C3469   1.404       .  A
C3468      C3473   1.451       .  S
C3469      C3470   1.405       .  A
C3469      C3476   1.453       .  S
C3470      C3471   1.415       .  A
C3471      C3472   1.420       .  A
C3471      C3474   1.449       .  S
C3472      C3475   1.449       .  S
C3473      N3480   1.156       .  T
C3474      N3479   1.157       .  T
C3475      N3477   1.157       .  T
C3476      N3478   1.156       .  T
C3481      C3482   1.418       .  A
C3481      C3486   1.415       .  A
C3482      C3483   1.410       .  A
C3482      C3487   1.451       .  S
C3483      C3484   1.410       .  A
C3483      C3490   1.451       .  S
C3484      C3485   1.412       .  A
C3485      C3486   1.416       .  A
C3485      C3488   1.450       .  S
C3486      C3489   1.448       .  S
C3487      N3494   1.157       .  T
C3488      N3493   1.157   1_655  T
C3489      N3491   1.157       .  T
C3490      N3492   1.157       .  T
C3495      C3496   1.407       .  A
C3495      C3500   1.412       .  A
C3496      C3497   1.402   1_655  A
C3496      C3501   1.452   1_655  S
C3497      C3498   1.408   1_455  A
C3498      C3499   1.410       .  A
C3499      C3500   1.409       .  A
C3499      C3502   1.450       .  S
C3500      C3503   1.450       .  S
C3502      N3507   1.157       .  T
C3503      N3505   1.157       .  T
C3504      N3506   1.155       .  T
C3509      C3510   1.417       .  A
C3509      C3514   1.415       .  A
C3510      C3511   1.423       .  A
C3510      C3515   1.448       .  S
C3511      C3512   1.423       .  A
C3511      C3518   1.449       .  S
C3512      C3513   1.413       .  A
C3513      C3514   1.405       .  A
C3513      C3516   1.447       .  S
C3514      C3517   1.448       .  S
C3515      N3522   1.157       .  T
C3516      N3521   1.156       .  T
C3517      N3519   1.157       .  T
C3518      N3520   1.157       .  T
C3523      C3524   1.413       .  A
C3523      C3528   1.415       .  A
C3524      C3525   1.420       .  A
C3524      C3529   1.450       .  S
C3525      C3526   1.420       .  A
C3525      C3532   1.450       .  S
C3526      C3527   1.419       .  A
C3527      C3528   1.414       .  A
C3527      C3530   1.451       .  S
C3528      C3531   1.453       .  S
C3529      N3536   1.157       .  T
C3530      N3535   1.157       .  T
C3531      N3533   1.157       .  T
C3532      N3534   1.157       .  T
