geometry optimzed in LAMMPS
_audit_creation_date              2020-11-30 
_audit_creation_method            'lammps2cif' 
_symmetry_space_group_name_H-M    'P1' 
_symmetry_Int_Tables_number       1 
_symmetry_cell_setting            triclinic 
loop_ 
_symmetry_equiv_pos_as_xyz 
  x,y,z 
_cell_length_a                    50.55271432 
_cell_length_b                    50.5586925901562 
_cell_length_c                    63.180756359781995 
_cell_angle_alpha                 90.01805944296574 
_cell_angle_beta                  89.98940618428863 
_cell_angle_gamma                 120.00763351513744 
loop_ 
_atom_site_label 
_atom_site_type_symbol 
_atom_site_fract_x 
_atom_site_fract_y 
_atom_site_fract_z 
_atom_site_charge 
C1          C  0.30600397  0.00658319  0.71659325     0.82500
N2          N  0.33314625  0.01588198  0.70672223    -0.75800
C3          C  0.35923799  0.03918499  0.71492136     0.85000
N4          N  0.35831833  0.05300146  0.73298937    -0.75700
C5          C  0.33146242  0.04380098  0.74298134     0.85100
N6          N  0.30515998  0.02044098  0.73487940    -0.77400
C7          C  0.04990279  0.12226705  0.66934921     0.82500
N8          N  0.04950937  0.10852774  0.65070393    -0.75800
C9          C  0.02272534  0.08507251  0.64327616     0.85000
N10         N  0.99660440  0.07569469  0.65429451    -0.75700
C11         C  0.49692142  0.08940002  0.67273568     0.85100
N12         N  0.02349713  0.11280741  0.68024979    -0.77400
C13         C  0.27998713  0.45705595  0.83411186     0.82500
N14         N  0.26624827  0.44374306  0.81545741    -0.75800
C15         C  0.26847918  0.41973572  0.80784567     0.85000
N16         N  0.28447563  0.40933810  0.81870108    -0.75700
C17         C  0.29824080  0.42259201  0.83715112     0.85100
N18         N  0.29618710  0.44656421  0.84484953    -0.77400
C19         C  0.40789024  0.34135180  0.88179671     0.82500
N20         N  0.38935857  0.34951961  0.87164420    -0.75800
C21         C  0.38561819  0.37244131  0.87945168     0.85000
N22         N  0.40008470  0.38699238  0.89741360    -0.75700
C23         C  0.41842938  0.37891905  0.90767707     0.85100
N24         N  0.42231049  0.35593216  0.89997461    -0.77400
C25         C  0.44929288  0.29179757  0.50000943     0.82500
N26         N  0.46803108  0.28331471  0.50949461    -0.75800
C27         C  0.47134881  0.26042770  0.50111255     0.85000
N28         N  0.45622581  0.24619469  0.48325573    -0.75700
C29         C  0.43767026  0.25457460  0.47364769     0.85100
N30         N  0.43420410  0.27753211  0.48192432    -0.77400
C31         C  0.07722653  0.17609516  0.54726333     0.82500
N32         N  0.08998053  0.18943172  0.56613677    -0.75800
C33         C  0.08712242  0.21326970  0.57333976     0.85000
N34         N  0.07143976  0.22343326  0.56186406    -0.75700
C35         C  0.05865255  0.21014910  0.54319359     0.85100
N36         N  0.06133288  0.18635117  0.53590593    -0.77400
C37         C  0.38392696  0.28938350  0.00249633     0.82500
N38         N  0.38335869  0.27559527  0.98383152    -0.75800
C39         C  0.35657041  0.25186386  0.97665130     0.85000
N40         N  0.33063716  0.24226599  0.98792095    -0.75700
C41         C  0.33112248  0.25600727  0.00637065     0.85100
N42         N  0.35768397  0.27969738  0.01365035    -0.77400
C43         C  0.14002338  0.17412658  0.04948506     0.82500
N44         N  0.13928534  0.18816221  0.06770839    -0.75800
C45         C  0.16568458  0.21136982  0.07581369     0.85000
N46         N  0.19251986  0.22021598  0.06590523    -0.75700
C47         C  0.19332283  0.20621317  0.04790585     0.85100
N48         N  0.16714484  0.18306543  0.03969593    -0.77400
C49         C  0.47197525  0.34143642  0.38230408     0.82500
N50         N  0.47142897  0.35466982  0.40096907    -0.75800
C51         C  0.49763524  0.37861717  0.40868504     0.85000
N52         N  0.02411953  0.38901616  0.39792736    -0.75700
C53         C  0.02474626  0.37583601  0.37946872     0.85100
N54         N  0.49875319  0.35193140  0.37167009    -0.77400
C55         C  0.21572622  0.45689866  0.33504807     0.82500
N56         N  0.18897411  0.44850532  0.34520558    -0.75800
C57         C  0.16236617  0.42563544  0.33728428     0.85000
N58         N  0.16239127  0.41137476  0.31919628    -0.75700
C59         C  0.18887620  0.41970000  0.30892844     0.85100
N60         N  0.21567693  0.44262539  0.31675056    -0.77400
C61         C  0.11428845  0.12451504  0.16712985     0.82500
N62         N  0.10076618  0.11133632  0.14839122    -0.75800
C63         C  0.10341306  0.08762852  0.14064680     0.85000
N64         N  0.11958003  0.07739492  0.15145407    -0.75700
C65         C  0.13311473  0.09051532  0.16998279     0.85100
N66         N  0.13065341  0.11418040  0.17782219    -0.77400
C67         C  0.24165005  0.00825614  0.21480127     0.82500
N68         N  0.22330022  0.01660002  0.20459225    -0.75800
C69         C  0.21942279  0.03937531  0.21251364     0.85000
N70         N  0.23356340  0.05360605  0.23063446    -0.75700
C71         C  0.25170951  0.04534163  0.24095779     0.85100
N72         N  0.25574230  0.02250416  0.23314473    -0.77400
C73         C  0.03464099  0.27791046  0.83369752     0.82500
N74         N  0.04817471  0.27730017  0.81519176    -0.75800
C75         C  0.07185982  0.30359152  0.80735769     0.85000
N76         N  0.08171630  0.33019494  0.81783999    -0.75700
C77         C  0.06823779  0.33087715  0.83613252     0.85100
N78         N  0.04459498  0.30481060  0.84406371    -0.77400
C79         C  0.15046796  0.02190994  0.88073953     0.82500
N80         N  0.13628016  0.02161049  0.89913355    -0.75800
C81         C  0.11322410  0.99474404  0.90674380     0.85000
N82         N  0.10469190  0.46844423  0.89618082    -0.75700
C83         C  0.11886800  0.46867111  0.87799641     0.85100
N84         N  0.14188147  0.49533798  0.87027866    -0.77400
C85         C  0.36994705  0.38188376  0.66911730     0.82500
N86         N  0.38407208  0.39556939  0.65064551    -0.75800
C87         C  0.40754654  0.39220259  0.64330657     0.85000
N88         N  0.41655065  0.37509404  0.65422285    -0.75700
C89         C  0.40246004  0.36136198  0.67247618     0.85100
N90         N  0.37903758  0.36456214  0.67991517    -0.77400
C91         C  0.48550703  0.25365008  0.71666889     0.82500
N92         N  0.47610054  0.27125072  0.70658896    -0.75800
C93         C  0.45267859  0.27397493  0.71462555     0.85000
N94         N  0.43886497  0.25944000  0.73274332    -0.75700
C95         C  0.44817402  0.24203275  0.74294113     0.85100
N96         N  0.47164143  0.23913922  0.73499964    -0.77400
C97         C  0.20073448  0.11174570  0.49982960     0.82500
N98         N  0.21496467  0.11096328  0.48171893    -0.75800
C99         C  0.23805321  0.13737617  0.47354099     0.85000
N100        N  0.24660984  0.16427461  0.48327962    -0.75700
C101        C  0.23240793  0.16512775  0.50116769     0.85100
N102        N  0.20938341  0.13892392  0.50944766    -0.77400
C103        C  0.31655729  0.35533215  0.54762259     0.82500
N104        N  0.30658313  0.32913667  0.53635271    -0.75800
C105        C  0.28285046  0.30260283  0.54363444     0.85000
N106        N  0.26934959  0.30210819  0.56220384    -0.75700
C107        C  0.27923771  0.32800451  0.57358215     0.85100
N108        N  0.30300144  0.35474995  0.56639134    -0.77400
C109        C  0.20307689  0.04696906  0.00211992     0.82500
N110        N  0.21127704  0.02843924  0.01223410    -0.75800
C111        C  0.23390278  0.02439786  0.00420577     0.85000
N112        N  0.24809201  0.03853458  0.98607470    -0.75700
C113        C  0.23994104  0.05684718  0.97586401     0.85100
N114        N  0.21727472  0.06104201  0.98377944    -0.77400
C115        C  0.31883031  0.41878201  0.04887359     0.82500
N116        N  0.30564977  0.40517556  0.06759017    -0.75800
C117        C  0.28173515  0.40752387  0.07526604     0.85000
N118        N  0.27132157  0.42350552  0.06442409    -0.75700
C119        C  0.28444746  0.43713262  0.04592250     0.85100
N120        N  0.30831784  0.43496984  0.03815218    -0.77400
C121        C  0.15256714  0.08718561  0.38330278     0.82500
N122        N  0.13886715  0.07281234  0.40171148    -0.75800
C123        C  0.11527305  0.07552735  0.40962004     0.85000
N124        N  0.10567633  0.09261760  0.39930157    -0.75700
C125        C  0.11933699  0.10701464  0.38110755     0.85100
N126        N  0.14286782  0.10445572  0.37310969    -0.77400
C127        C  0.03627263  0.21417324  0.33492746     0.82500
N128        N  0.05013059  0.22778318  0.31636891    -0.75800
C129        C  0.07338530  0.22424199  0.30877162     0.85000
N130        N  0.08245308  0.20705802  0.31954314    -0.75700
C131        C  0.06861632  0.19340979  0.33788755     0.85100
N132        N  0.04543255  0.19680231  0.34557374    -0.77400
C133        C  0.48525058  0.18878812  0.21489532     0.82500
N134        N  0.47669782  0.16213823  0.20456014    -0.75800
C135        C  0.45374793  0.13551032  0.21236307     0.85000
N136        N  0.43954726  0.13539168  0.23050750    -0.75700
C137        C  0.44801187  0.16175483  0.24097047     0.85100
N138        N  0.47103626  0.18861176  0.23326834    -0.77400
C139        C  0.36934711  0.44527535  0.16706856     0.82500
N140        N  0.37952945  0.47210413  0.17757370    -0.75800
C141        C  0.40343338  0.49811286  0.16980448     0.85000
N142        N  0.41694733  0.49745168  0.15151732    -0.75700
C143        C  0.40686075  0.47091126  0.14089406     0.85100
N144        N  0.38291355  0.44468562  0.14857498    -0.77400
C145        C  0.27904175  0.27686369  0.33507743     0.82500
N146        N  0.29694707  0.30349878  0.34548475    -0.75800
C147        C  0.30050452  0.33009173  0.33771623     0.85000
N148        N  0.28650592  0.33019658  0.31953162    -0.75700
C149        C  0.26880209  0.30384870  0.30899783     0.85100
N150        N  0.26508566  0.27702696  0.31666630    -0.77400
C151        C  0.40637195  0.02032241  0.38301504     0.82500
N152        N  0.38970624  0.49349486  0.37252065    -0.75800
C153        C  0.38721368  0.46741102  0.38044934     0.85000
N154        N  0.40103340  0.46799123  0.39888076    -0.75700
C155        C  0.41750977  0.99452364  0.40950538     0.85100
N156        N  0.42017961  0.02084454  0.40166452    -0.77400
C157        C  0.24102415  0.18766479  0.71582336     0.82500
N158        N  0.22550355  0.16109234  0.70484604    -0.75800
C159        C  0.22363323  0.13514571  0.71252118     0.85000
N160        N  0.23688434  0.13560103  0.73118715    -0.75700
C161        C  0.25219719  0.16186791  0.74228496     0.85100
N162        N  0.25425925  0.18804080  0.73469579    -0.77400
C163        C  0.11401506  0.44429230  0.66796292     0.82500
N164        N  0.13303354  0.47106231  0.67787702    -0.75800
C165        C  0.13724804  0.49777770  0.66983100     0.85000
N166        N  0.12273652  0.49783391  0.65188729    -0.75700
C167        C  0.10391790  0.47132909  0.64186478     0.85100
N168        N  0.09956820  0.44441621  0.64980241    -0.77400
C169        C  0.37970779  0.04140146  0.49920625     0.82500
N170        N  0.38077671  0.05678956  0.48123360    -0.75800
C171        C  0.35444500  0.05324276  0.47274012     0.85000
N172        N  0.32733720  0.03432807  0.48204108    -0.75700
C173        C  0.32620093  0.01889999  0.49979608     0.85100
N174        N  0.35233190  0.02230729  0.50838747    -0.77400
C175        C  0.13631206  0.41390335  0.54672658     0.82500
N176        N  0.16233772  0.42934135  0.53516624    -0.75800
C177        C  0.18876727  0.43173644  0.54229446     0.85000
N178        N  0.18934700  0.41912724  0.56102504    -0.75700
C179        C  0.16362627  0.40389433  0.57270983     0.85100
N180        N  0.13698417  0.40133321  0.56565747    -0.77400
C181        C  0.30489307  0.25093219  0.21462570     0.82500
N182        N  0.33155605  0.26886981  0.20424798    -0.75800
C183        C  0.35814239  0.27237041  0.21201163     0.85000
N184        N  0.35819980  0.25828492  0.23016824    -0.75700
C185        C  0.33182244  0.24054418  0.24066696     0.85100
N186        N  0.30502357  0.23689236  0.23299904    -0.77400
C187        C  0.04868073  0.37899693  0.16709506     0.82500
N188        N  0.02184019  0.36224150  0.17757122    -0.75800
C189        C  0.49574039  0.35979853  0.16968330     0.85000
N190        N  0.99633585  0.37375482  0.15130943    -0.75700
C191        C  0.02288671  0.39031411  0.14071512     0.85100
N192        N  0.04919503  0.39292159  0.14851426    -0.77400
C193        C  0.44593869  0.11025390  0.00189178     0.82500
N194        N  0.46468795  0.13709477  0.01181397    -0.75800
C195        C  0.46860911  0.16368670  0.00375524     0.85000
N196        N  0.45410405  0.16356342  0.98576408    -0.75700
C197        C  0.43553577  0.13699907  0.97571960     0.85100
N198        N  0.43147883  0.11018995  0.98367607    -0.77400
C199        C  0.07417905  0.35401478  0.04884720     0.82500
N200        N  0.05822219  0.32733890  0.03804400    -0.75800
C201        C  0.05633411  0.30138130  0.04571849     0.85000
N202        N  0.07001513  0.30193611  0.06421599    -0.75700
C203        C  0.08577392  0.32831356  0.07514151     0.85100
N204        N  0.08783966  0.35448699  0.06754822    -0.77400
C205        C  0.21483378  0.21197056  0.83395950     0.82500
N206        N  0.21552671  0.22607754  0.81541966    -0.75800
C207        C  0.18924973  0.22340065  0.80748659     0.85000
N208        N  0.16259246  0.20661724  0.81790206    -0.75700
C209        C  0.16183905  0.19249234  0.83622062     0.85100
N210        N  0.18788132  0.19499059  0.84424887    -0.77400
C211        C  0.47115268  0.08460167  0.88171388     0.82500
N212        N  0.49762308  0.10233841  0.87107991    -0.75800
C213        C  0.02435455  0.10609365  0.87873691     0.85000
N214        N  0.02475787  0.09246036  0.89702268    -0.75700
C215        C  0.49857794  0.07492980  0.90777355     0.85100
N216        N  0.47162119  0.07100715  0.90021898    -0.77400
O217        O  0.36376677  0.10792971  0.80479951    -0.77800
O218        O  0.24684257  0.11380301  0.87726545    -0.79400
O219        O  0.28384937  0.05345567  0.83981376    -0.76400
O220        O  0.28172870  0.12859610  0.80485667    -0.74800
O221        O  0.31329329  0.18059138  0.80407924    -0.76600
O222        O  0.30949327  0.05123941  0.86906362    -0.77500
O223        O  0.24475656  0.08686617  0.84749604    -0.78800
O224        O  0.31179516  0.08768564  0.80381613    -0.79100
Eu225      Eu  0.29743711  0.10698315  0.83436934     2.39200
O226        O  0.30141609  0.15252235  0.84670833    -0.86600
O227        O  0.33973909  0.10354301  0.84651505    -0.90200
C228        C  0.33696031  0.09064005  0.79672394     1.04500
C229        C  0.23245014  0.09232316  0.86359364     1.04300
C230        C  0.29196155  0.03916490  0.85282636     1.04200
C231        C  0.29117559  0.15544605  0.79689173     1.02100
H232        H  0.27994314  0.08833931  0.87688049     0.31800
O233        O  0.29783451  0.10629272  0.87164092    -0.99000
H234        H  0.34327526  0.14909753  0.80695322     0.31900
O235        O  0.34329153  0.14906197  0.82224719    -1.01500
O236        O  0.32171046  0.18844680  0.91395430    -0.78800
O237        O  0.43882696  0.18514011  0.83980773    -0.78300
O238        O  0.30379790  0.08752941  0.91365305    -0.76700
O239        O  0.30722465  0.20848158  0.84015379    -0.80100
O240        O  0.38425373  0.21060714  0.80493306    -0.77900
O241        O  0.37860985  0.08786162  0.87734340    -0.76600
O242        O  0.40464222  0.17057225  0.91373137    -0.78100
O243        O  0.40437524  0.24537693  0.87748743    -0.80000
O244        O  0.37369980  0.11846896  0.91433570    -0.76800
O245        O  0.37940583  0.24755356  0.84783252    -0.79500
O246        O  0.28255695  0.11839550  0.91445625    -0.75200
O247        O  0.40574069  0.11287981  0.84768925    -0.75200
O248        O  0.40456017  0.17894098  0.80387324    -0.74900
O249        O  0.27945065  0.18290842  0.86945761    -0.78400
O250        O  0.37383064  0.20965462  0.91449183    -0.77800
O251        O  0.44102078  0.21290284  0.86912323    -0.76100
Eu252      Eu  0.30076299  0.15198192  0.88383290     2.39800
Eu253      Eu  0.38534008  0.14518425  0.83435951     2.39600
Eu254      Eu  0.34024855  0.10337780  0.88363068     2.38400
Eu255      Eu  0.34707723  0.19487383  0.83453021     2.39900
Eu256      Eu  0.38889274  0.19145006  0.88374049     2.39800
O257        O  0.38870570  0.19085797  0.84662663    -0.90500
O258        O  0.34331033  0.14890991  0.89554245    -0.89400
C259        C  0.34855054  0.20593387  0.92195097     1.04600
C260        C  0.45309248  0.20751709  0.85284834     1.03400
C261        C  0.28630633  0.09677345  0.92175170     1.02800
C262        C  0.28489739  0.20043975  0.85322277     1.04800
C263        C  0.40154273  0.20112193  0.79681574     1.03700
C264        C  0.40030011  0.09516815  0.86382312     1.02500
C265        C  0.39533994  0.14376004  0.92173808     1.02600
C266        C  0.39711465  0.25980144  0.86396907     1.06400
H267        H  0.40391591  0.14630930  0.87688438     0.32600
O268        O  0.38596249  0.14620633  0.87161216    -1.02700
H269        H  0.34595651  0.21218565  0.87709185     0.34600
O270        O  0.34604057  0.19434455  0.87178134    -1.05200
O271        O  0.44970888  0.44373152  0.96958461    -0.77800
O272        O  0.07014532  0.44641387  0.04335344    -0.79400
O273        O  0.05010291  0.46109758  0.96937988    -0.76400
O274        O  0.47558250  0.38650400  0.00584427    -0.74800
O275        O  0.44859993  0.38436322  0.03559018    -0.76600
O276        O  0.07150160  0.51322859  0.96880561    -0.77500
O277        O  0.04462398  0.41885970  0.01396228    -0.78800
O278        O  0.48036885  0.42225814  0.96890267    -0.79100
Eu279      Eu  0.01391977  0.44041428  0.99955774     2.39200
O280        O  0.01441458  0.44090505  0.03667535    -0.86600
O281        O  0.01100823  0.48304707  0.98784237    -0.90200
C282        C  0.45884258  0.42611005  0.96153529     1.04500
C283        C  0.06205801  0.42412437  0.03023362     1.04300
C284        C  0.06756074  0.48786991  0.96132495     1.04200
C285        C  0.45401571  0.37208385  0.01944513     1.02100
H286        H  0.07426395  0.48546823  0.00636251     0.31800
O287        O  0.05643002  0.48558585  0.01166511    -0.99000
H288        H  0.45033461  0.41978749  0.00638813     0.31900
O289        O  0.46829922  0.43762427  0.01167568    -1.01500
O290        O  0.07278227  0.02389691  0.07844784    -0.78800
O291        O  0.44979636  0.01824822  0.00632379    -0.78300
O292        O  0.10752170  0.04392676  0.00624337    -0.76700
O293        O  0.49030713  0.42115626  0.07844848    -0.80100
O294        O  0.41538968  0.42324054  0.04332531    -0.77900
O295        O  0.03292877  0.04457394  0.96978437    -0.76600
O296        O  0.04726308  0.07853301  0.04340077    -0.78100
O297        O  0.47031577  0.00354017  0.07868513    -0.80000
O298        O  0.07502186  0.08070587  0.01408923    -0.76800
O299        O  0.44973957  0.45152292  0.07949181    -0.79500
O300        O  0.10947717  0.51880766  0.03588831    -0.75200
O301        O  0.48077892  0.01389622  0.96923173    -0.75200
O302        O  0.41326950  0.44899755  0.01411166    -0.74900
O303        O  0.04229821  0.45272959  0.07945026    -0.78400
O304        O  0.04132534  0.04444494  0.07940537    -0.77800
O305        O  0.47495832  0.04538890  0.03594105    -0.76100
Eu306      Eu  0.05677931  0.48648243  0.04895522     2.39800
Eu307      Eu  0.46549837  0.48008140  0.99972943     2.39600
Eu308      Eu  0.05365109  0.02850635  0.99968359     2.38400
Eu309      Eu  0.46890808  0.43705403  0.04892473     2.39900
Eu310      Eu  0.00738595  0.02503124  0.04903786     2.39800
O311        O  0.46563812  0.47949845  0.03684979    -0.90500
O312        O  0.05297909  0.02821839  0.03680161    -0.89400
C313        C  0.06347392  0.04138561  0.08647318     1.04600
C314        C  0.45708658  0.03987844  0.01989427     1.03400
C315        C  0.12183242  0.03661991  0.01983267     1.02800
C316        C  0.01708845  0.43057182  0.08652934     1.04800
C317        C  0.40112130  0.43130735  0.03026646     1.03700
C318        C  0.00611289  0.03548599  0.96184972     1.02500
C319        C  0.06958109  0.09280923  0.03031608     1.02600
C320        C  0.45291993  0.47672354  0.08669855     1.05200
H321        H  0.00849976  0.04365365  0.00659518     0.32600
O322        O  0.00841920  0.02568680  0.01180471    -1.02700
H323        H  0.01105468  0.48284049  0.07645311     0.34600
O324        O  0.01102415  0.48285323  0.06115847    -1.05200
O325        O  0.40527586  0.18985474  0.41208322    -0.77800
O326        O  0.28284021  0.18468448  0.33952240    -0.79400
O327        O  0.37995796  0.24477613  0.37689496    -0.76400
O328        O  0.30279065  0.16973331  0.41202288    -0.74800
O329        O  0.28235151  0.11773868  0.41292798    -0.76600
O330        O  0.40752268  0.24697111  0.34746950    -0.77500
O331        O  0.30786430  0.21176930  0.36919982    -0.78800
O332        O  0.37383983  0.21043248  0.41300990    -0.79100
Eu333      Eu  0.34009780  0.19126563  0.38249566     2.39200
O334        O  0.29838592  0.14575909  0.37024555    -0.86600
O335        O  0.38575789  0.19453017  0.37028595    -0.90200
C336        C  0.39590445  0.20727265  0.42014090     1.04500
C337        C  0.29014822  0.20635218  0.35306611     1.04300
C338        C  0.40215857  0.25908553  0.36372953     1.04200
C339        C  0.28540246  0.14292466  0.42005560     1.02100
H340        H  0.34123812  0.20982430  0.33995743     0.31800
O341        O  0.34108176  0.19185162  0.34523665    -0.99000
H342        H  0.34372387  0.14901414  0.40992661     0.31900
O343        O  0.34374032  0.14908392  0.39463096    -1.01500
O344        O  0.28240435  0.10969023  0.30307274    -0.78800
O345        O  0.40308168  0.11285998  0.37682374    -0.78300
O346        O  0.36550053  0.21032050  0.30301675    -0.76700
O347        O  0.24815195  0.08991323  0.37692267    -0.80100
O348        O  0.32291650  0.08716058  0.41173826    -0.77900
O349        O  0.44015294  0.21020250  0.33950811    -0.76600
O350        O  0.38342764  0.12757801  0.30301247    -0.78100
O351        O  0.30819806  0.05272026  0.33937642    -0.80000
O352        O  0.40475327  0.17970315  0.30249125    -0.76800
O353        O  0.28110266  0.05066325  0.36904671    -0.79500
O354        O  0.31336574  0.17960485  0.30240805    -0.75200
O355        O  0.44226081  0.18502837  0.36907098    -0.75200
O356        O  0.37492812  0.11860573  0.41274460    -0.74900
O357        O  0.24600609  0.11552907  0.34763832    -0.78400
O358        O  0.31323535  0.08840320  0.30233789    -0.77800
O359        O  0.37745005  0.08511369  0.34751833    -0.76100
Eu360      Eu  0.29821219  0.14622436  0.33312266     2.39800
Eu361      Eu  0.38954070  0.15275943  0.38242356     2.39600
Eu362      Eu  0.38628655  0.19470678  0.33314499     2.38400
Eu363      Eu  0.30160006  0.10333558  0.38236675     2.39900
Eu364      Eu  0.34672119  0.10660583  0.33300888     2.39800
O365        O  0.34713429  0.10720243  0.37013062    -0.90500
O366        O  0.34374023  0.14919762  0.32125158    -0.89400
C367        C  0.29162633  0.09214711  0.29500562     1.04600
C368        C  0.39496400  0.09050698  0.36376551     1.03400
C369        C  0.33871529  0.20110678  0.29498348     1.02800
C370        C  0.23390925  0.09806161  0.36390195     1.04800
C371        C  0.34969044  0.09640045  0.41976077     1.03700
C372        C  0.45453826  0.20283363  0.35297707     1.02500
C373        C  0.40104809  0.15441472  0.29505994     1.02600
C374        C  0.28652156  0.03836263  0.35292285     1.05200
H375        H  0.40690629  0.15170056  0.33987555     0.32600
O376        O  0.38906690  0.15181350  0.34516181    -1.02700
H377        H  0.28306895  0.08599883  0.33982652     0.34600
O378        O  0.30105014  0.10381565  0.34511173    -1.05200
O379        O  0.21306789  0.41118284  0.71024211    -0.77800
O380        O  0.21610111  0.29366371  0.63640340    -0.79400
O381        O  0.27309641  0.37681204  0.67272070    -0.76400
O382        O  0.19828838  0.37653925  0.63614234    -0.74800
O383        O  0.14615967  0.34572167  0.63563931    -0.76600
O384        O  0.27532442  0.35200390  0.70244961    -0.77500
O385        O  0.23741594  0.34578071  0.63574347    -0.78800
O386        O  0.24061152  0.41333398  0.68081322    -0.79100
Eu387      Eu  0.21915103  0.36110998  0.66635973     2.39200
O388        O  0.17656827  0.31548643  0.65468453    -0.86600
O389        O  0.21864201  0.36106451  0.70349349    -0.90200
C390        C  0.23535571  0.42543206  0.69713173     1.04500
C391        C  0.23364420  0.32044026  0.62836072     1.04300
C392        C  0.28756289  0.36971487  0.68631243     1.04200
C393        C  0.17146710  0.36717796  0.62811054     1.02100
H394        H  0.23995477  0.31827109  0.67320277     0.31800
O395        O  0.22208964  0.31834572  0.67848126    -0.99000
H396        H  0.17408362  0.37618975  0.67316927     0.31900
O397        O  0.17393041  0.35823809  0.67848775    -1.01500
O398        O  0.14153935  0.21910196  0.67298386    -0.78800
O399        O  0.13569891  0.33626736  0.74530660    -0.78300
O400        O  0.23641591  0.27973701  0.71019809    -0.76700
O401        O  0.11529057  0.27595562  0.63642474    -0.80100
O402        O  0.11581480  0.35116033  0.67281571    -0.77900
O403        O  0.23830754  0.35666056  0.74536377    -0.76600
O404        O  0.15632115  0.25416179  0.74540082    -0.78100
O405        O  0.08113640  0.25626471  0.71041652    -0.80000
O406        O  0.20832338  0.28575929  0.74621734    -0.76800
O407        O  0.07889494  0.28183194  0.68112631    -0.79500
O408        O  0.21068363  0.25182239  0.68097934    -0.75200
O409        O  0.20667013  0.37699966  0.74631186    -0.75200
O410        O  0.14085545  0.37826194  0.70248437    -0.74900
O411        O  0.14614749  0.25469652  0.63583870    -0.78400
O412        O  0.11442071  0.21704612  0.70263492    -0.77800
O413        O  0.11539648  0.28429354  0.74633644    -0.76100
Eu414      Eu  0.17967835  0.27301343  0.66651019     2.39800
Eu415      Eu  0.17300341  0.35773559  0.71576635     2.39600
Eu416      Eu  0.22264102  0.31949604  0.71574094     2.38400
Eu417      Eu  0.13102833  0.31251584  0.66649117     2.39900
Eu418      Eu  0.13466112  0.26978549  0.71584880     2.39800
O419        O  0.13132472  0.31212006  0.70362123    -0.90500
O420        O  0.18025491  0.27375917  0.70362918    -0.89400
C421        C  0.11994247  0.20471625  0.68656843     1.04600
C422        C  0.11837340  0.30948085  0.75339278     1.03400
C423        C  0.22832957  0.25735834  0.69716399     1.02800
C424        C  0.12458486  0.25843924  0.62840156     1.04800
C425        C  0.12320563  0.37289014  0.68633004     1.03700
C426        C  0.22880785  0.37396093  0.75344153     1.02500
C427        C  0.18317369  0.26362967  0.75338732     1.02600
C428        C  0.06684367  0.26437634  0.69740161     1.05200
H429        H  0.17680483  0.31570151  0.74325530     0.32600
O430        O  0.17678226  0.31567862  0.72795978    -1.02700
H431        H  0.11602589  0.25225557  0.67334055     0.34600
O432        O  0.13396778  0.27015296  0.67858583    -1.05200
O433        O  0.19821623  0.27535791  0.13774761    -0.77800
O434        O  0.08114790  0.28100647  0.21030128    -0.79400
O435        O  0.11797030  0.22064693  0.17288592    -0.76400
O436        O  0.11597346  0.29557196  0.13768624    -0.74800
O437        O  0.14756306  0.34755855  0.13674739    -0.76600
O438        O  0.14351683  0.21846937  0.20220818    -0.77500
O439        O  0.07900016  0.25383534  0.18065285    -0.78800
O440        O  0.14621689  0.25494434  0.13680371    -0.79100
Eu441      Eu  0.13170231  0.27416041  0.16731246     2.39200
O442        O  0.13559954  0.31972097  0.17951891    -0.86600
O443        O  0.17405779  0.27081046  0.17951890    -0.90200
C444        C  0.17141631  0.25803625  0.12967259     1.04500
C445        C  0.06674295  0.25932429  0.19678089     1.04300
C446        C  0.12597505  0.20636204  0.18597778     1.04200
C447        C  0.12543760  0.32236285  0.12961120     1.02100
H448        H  0.11431198  0.25566951  0.20981932     0.31800
O449        O  0.13217365  0.27362230  0.20455699    -0.99000
H450        H  0.17761381  0.31621087  0.13987043     0.31900
O451        O  0.17759426  0.31621329  0.15516645    -1.01500
O452        O  0.15572915  0.35573518  0.24671536    -0.78800
O453        O  0.27314808  0.35264213  0.17285970    -0.78300
O454        O  0.13773018  0.25472899  0.24659635    -0.76700
O455        O  0.14130456  0.37555303  0.17285616    -0.80100
O456        O  0.21857590  0.37766532  0.13771553    -0.77900
O457        O  0.21276841  0.25504185  0.21029269    -0.76600
O458        O  0.23878818  0.33789333  0.24673195    -0.78100
O459        O  0.23850753  0.41265509  0.21028111    -0.80000
O460        O  0.20787176  0.28578067  0.24734469    -0.76800
O461        O  0.21362667  0.41475025  0.18053863    -0.79500
O462        O  0.11646208  0.28556934  0.24724008    -0.75200
O463        O  0.24002979  0.28013296  0.18069754    -0.75200
O464        O  0.23904850  0.34613533  0.13688406    -0.74900
O465        O  0.11367235  0.35012715  0.20224270    -0.78400
O466        O  0.20785162  0.37704420  0.24740621    -0.77800
O467        O  0.27529779  0.38035298  0.20219189    -0.76100
Eu468      Eu  0.13502274  0.31927419  0.21665772     2.39800
Eu469      Eu  0.21968974  0.31248483  0.16738532     2.39600
Eu470      Eu  0.17447153  0.27066988  0.21664962     2.38400
Eu471      Eu  0.18128857  0.36204046  0.16728970     2.39900
Eu472      Eu  0.22309388  0.35879297  0.21670323     2.39800
O473        O  0.22290411  0.35810886  0.17957462    -0.90500
O474        O  0.17753008  0.31624023  0.22853025    -0.89400
C475        C  0.18249373  0.37327071  0.25477327     1.04600
C476        C  0.28739844  0.37501250  0.18591347     1.03400
C477        C  0.12009814  0.26389783  0.25458781     1.02800
C478        C  0.11902027  0.36756067  0.18596776     1.04800
C479        C  0.23597019  0.36821884  0.12971068     1.03700
C480        C  0.23448288  0.26233000  0.19678968     1.02500
C481        C  0.22948544  0.31108031  0.25474528     1.02600
C482        C  0.23127812  0.42702986  0.19670005     1.05200
H483        H  0.23815771  0.31360878  0.20991962     0.32600
O484        O  0.22021938  0.31352354  0.20463657    -1.02700
H485        H  0.18014662  0.37945459  0.20983804     0.34600
O486        O  0.18027278  0.36161706  0.20456452    -1.05200
O487        O  0.48860360  0.02192432  0.58051486    -0.77800
O488        O  0.10570050  0.01843828  0.50644568    -0.79400
O489        O  0.07195650  0.00443556  0.58021185    -0.76400
O490        O  0.07143032  0.07881604  0.54382321    -0.74800
O491        O  0.04620112  0.08082466  0.51426247    -0.76600
O492        O  0.04125159  0.45230444  0.58095763    -0.77500
O493        O  0.10793023  0.04629825  0.53571373    -0.78800
O494        O  0.04071896  0.04315902  0.58105823    -0.79100
Eu495      Eu  0.05581433  0.02491057  0.55027921     2.39200
O496        O  0.05548791  0.02408593  0.51316834    -0.86600
O497        O  0.01036789  0.48237290  0.56223866    -0.90200
C498        C  0.01542365  0.03942612  0.58851945     1.04500
C499        C  0.11997899  0.04086673  0.51945157     1.04300
C500        C  0.06288106  0.47769978  0.58824743     1.04200
C501        C  0.06411893  0.09318298  0.53029261     1.02100
H502        H  0.07092757  0.47965827  0.54344040     0.31800
O503        O  0.05295958  0.47959643  0.53823994    -0.99000
H504        H  0.01284772  0.04563735  0.54362258     0.31900
O505        O  0.01292408  0.02777230  0.53834872    -1.01500
O506        O  0.03052601  0.44133257  0.47130348    -0.78800
O507        O  0.41380299  0.44693042  0.54424297    -0.78300
O508        O  0.04545367  0.42095688  0.54387718    -0.76700
O509        O  0.05103479  0.04374620  0.47147972    -0.80100
O510        O  0.47346885  0.04106493  0.50651849    -0.77900
O511        O  0.47107441  0.42130639  0.58067704    -0.76600
O512        O  0.45089180  0.38666150  0.50671715    -0.78100
O513        O  0.44829213  0.46159920  0.47170525    -0.80000
O514        O  0.47649564  0.38455992  0.53603549    -0.76800
O515        O  0.47993035  0.01358016  0.47067861    -0.79500
O516        O  0.07237969  0.44579677  0.51411408    -0.75200
O517        O  0.44978295  0.45213109  0.58129547    -0.75200
O518        O  0.44591640  0.01563441  0.53592891    -0.74900
O519        O  0.07151932  0.01223033  0.47050958    -0.78400
O520        O  0.47851936  0.42088927  0.47053314    -0.77800
O521        O  0.41157549  0.41980676  0.51455031    -0.76100
Eu522      Eu  0.05219711  0.47841226  0.50098014     2.39800
Eu523      Eu  0.46775495  0.48531931  0.55050660     2.39600
Eu524      Eu  0.00734539  0.43679831  0.55045898     2.38400
Eu525      Eu  0.01382120  0.02804884  0.50108229     2.39900
Eu526      Eu  0.46423709  0.44009019  0.50118620     2.39800
O527        O  0.46828077  0.48568536  0.51339958    -0.90500
O528        O  0.00666436  0.43685696  0.51332518    -0.89400
C529        C  0.00368121  0.42401345  0.46328639     1.04600
C530        C  0.39933615  0.42531137  0.53067672     1.03400
C531        C  0.06692326  0.42799994  0.53020392     1.02800
C532        C  0.06845183  0.03437021  0.46342062     1.04800
C533        C  0.45106791  0.03284995  0.51955667     1.03700
C534        C  0.45361246  0.43063970  0.58873856     1.02500
C535        C  0.45903717  0.37244199  0.51976661     1.02600
C536        C  0.45770268  0.48839208  0.46363607     1.05200
H537        H  0.44703076  0.42166190  0.54378686     0.32600
O538        O  0.46486442  0.43959083  0.53846444    -1.02700
H539        H  0.00997496  0.48216455  0.47363308     0.34600
O540        O  0.01004401  0.48217210  0.48892742    -1.05200
C541        C  0.00014894  0.06119465  0.92723642    -0.11000
C542        C  0.00370921  0.05025536  0.94317881    -0.12500
C543        C  0.44332727  0.08269997  0.87422471    -0.11000
C544        C  0.42208277  0.08553649  0.86844728    -0.12500
C545        C  0.18882920  0.23759957  0.78794476    -0.11000
C546        C  0.18572516  0.24878912  0.77196889    -0.12500
C547        C  0.26281236  0.20953986  0.84811746    -0.11000
C548        C  0.24193583  0.21273683  0.84193569    -0.12500
C549        C  0.13310089  0.17406695  0.84641738    -0.16200
C550        C  0.10775516  0.15874379  0.85339821     0.07900
C551        C  0.07773828  0.14082060  0.86093261     0.09700
C552        C  0.05258048  0.12517345  0.86812448    -0.17000
C553        C  0.09954324  0.32773280  0.09486134    -0.11000
C554        C  0.11061785  0.32475131  0.11094671    -0.12500
C555        C  0.07105515  0.40191401  0.03525067    -0.11000
C556        C  0.07439306  0.38101414  0.04119765    -0.12500
C557        C  0.44409042  0.08257155  0.00963943    -0.11000
C558        C  0.44716657  0.06148114  0.01543597    -0.12500
C559        C  0.42110923  0.13803509  0.95643363    -0.11000
C560        C  0.40996682  0.14134172  0.94049633    -0.12500
C561        C  0.48874368  0.19226402  0.01364055    -0.16200
C562        C  0.00506425  0.21752980  0.02048178     0.07900
C563        C  0.02339460  0.24755191  0.02794537     0.09700
C564        C  0.03861207  0.27281917  0.03510473    -0.17000
C565        C  0.07585313  0.37971662  0.17489994    -0.11000
C566        C  0.09685296  0.37659132  0.18091219    -0.12500
C567        C  0.02237430  0.40438435  0.12113078    -0.11000
C568        C  0.01944457  0.41563224  0.10512364    -0.12500
C569        C  0.33639496  0.21563211  0.27614399    -0.11000
C570        C  0.33305226  0.22655541  0.26011070    -0.12500
C571        C  0.27723551  0.24938202  0.20709215    -0.11000
C572        C  0.25612905  0.25248787  0.20135792    -0.12500
C573        C  0.46706896  0.34142715  0.18002117    -0.16200
C574        C  0.44177706  0.32595639  0.18708424     0.07900
C575        C  0.41178114  0.30770916  0.19462729     0.09700
C576        C  0.38657865  0.29176724  0.20169621    -0.17000
C577        C  0.16904449  0.38130968  0.60906896    -0.11000
C578        C  0.16543518  0.39143361  0.59272315    -0.12500
C579        C  0.10901761  0.41367924  0.53978483    -0.11000
C580        C  0.08826972  0.41763750  0.53445513    -0.12500
C581        C  0.35454839  0.06888985  0.45378927    -0.11000
C582        C  0.35197287  0.08102480  0.43813096    -0.12500
C583        C  0.42843846  0.04112414  0.51419478    -0.11000
C584        C  0.40709858  0.04333148  0.50772314    -0.12500
C585        C  0.29711593  0.99871674  0.50905929    -0.16200
C586        C  0.27169401  0.48250135  0.51570210     0.07900
C587        C  0.24173725  0.46428583  0.52334104     0.09700
C588        C  0.21673552  0.44916905  0.53093832    -0.17000
C589        C  0.11153359  0.41636690  0.67577267    -0.11000
C590        C  0.11388683  0.39488572  0.68164667    -0.12500
C591        C  0.08929985  0.47244227  0.62271822    -0.11000
C592        C  0.07782914  0.47553433  0.60688991    -0.12500
C593        C  0.24113843  0.21460493  0.70816808    -0.11000
C594        C  0.23760739  0.23537049  0.70219335    -0.12500
C595        C  0.26556133  0.16115948  0.76214190    -0.11000
C596        C  0.27641012  0.15798712  0.77826581    -0.12500
C597        C  0.15741471  0.02626455  0.67981017    -0.16200
C598        C  0.17356923  0.05148667  0.68677316     0.07900
C599        C  0.19154290  0.08146463  0.69440150     0.09700
C600        C  0.20638678  0.10668311  0.70171030    -0.17000
C601        C  0.40396478  0.06834562  0.36889834    -0.11000
C602        C  0.40713634  0.04745557  0.37509369    -0.12500
C603        C  0.43150231  0.49395010  0.42912016    -0.11000
C604        C  0.44269345  0.49083195  0.44509811    -0.12500
C605        C  0.27740930  0.24920201  0.34266010    -0.11000
C606        C  0.28044787  0.22809401  0.34847584    -0.12500
C607        C  0.25488898  0.30515052  0.28954195    -0.11000
C608        C  0.24402535  0.30864167  0.27353344    -0.12500
C609        C  0.31982265  0.35847149  0.34808406    -0.16200
C610        C  0.33566091  0.38362550  0.35522939     0.07900
C611        C  0.35372650  0.41355617  0.36288145     0.09700
C612        C  0.36902648  0.43879531  0.37003966    -0.17000
C613        C  0.43571527  0.47431094  0.10535500    -0.11000
C614        C  0.42153736  0.47137490  0.12136475    -0.12500
C615        C  0.31856618  0.39723546  0.18080363    -0.11000
C616        C  0.34272712  0.41819012  0.17479308    -0.12500
C617        C  0.41815975  0.15690342  0.27632176    -0.11000
C618        C  0.43265082  0.16043722  0.26036838    -0.12500
C619        C  0.03530058  0.23762304  0.20141000    -0.11000
C620        C  0.01118966  0.21649845  0.20727178    -0.12500
C621        C  0.41387378  0.02675453  0.18019370    -0.16200
C622        C  0.42380486  0.05200915  0.18733025     0.07900
C623        C  0.43561635  0.08195494  0.19495063     0.09700
C624        C  0.44484277  0.10711900  0.20205628    -0.17000
C625        C  0.48598563  0.21257827  0.34833427    -0.11000
C626        C  0.01015183  0.21567620  0.34248764    -0.12500
C627        C  0.08851013  0.23805414  0.28925104    -0.11000
C628        C  0.10292185  0.24910214  0.27327790    -0.12500
C629        C  0.08588697  0.04941919  0.44488453    -0.11000
C630        C  0.10032130  0.06094215  0.42900448    -0.12500
C631        C  0.20279756  0.08920869  0.36910027    -0.11000
C632        C  0.17881867  0.08623775  0.37531788    -0.12500
C633        C  0.07811082  0.17462374  0.34853910    -0.16200
C634        C  0.08760111  0.15906725  0.35593014     0.07900
C635        C  0.09946541  0.14108866  0.36377219     0.09700
C636        C  0.10924689  0.12564734  0.37092709    -0.17000
C637        C  0.34553468  0.41845858  0.04119105    -0.11000
C638        C  0.36982766  0.42195988  0.03523644    -0.12500
C639        C  0.26739281  0.39388268  0.09499830    -0.11000
C640        C  0.25325778  0.38297334  0.11107524    -0.12500
C641        C  0.25519757  0.07098035  0.95650159    -0.11000
C642        C  0.26944119  0.08209844  0.94051398    -0.12500
C643        C  0.15329871  0.04635364  0.01541721    -0.11000
C644        C  0.17737577  0.04907285  0.00979291    -0.12500
C645        C  0.27379700  0.45505963  0.03541578    -0.16200
C646        C  0.26369541  0.47029540  0.02840548     0.07900
C647        C  0.25175230  0.48845615  0.02109063     0.09700
C648        C  0.24254302  0.00454996  0.01426447    -0.17000
C649        C  0.26456033  0.32632497  0.59336307    -0.11000
C650        C  0.25048447  0.32277911  0.60951933    -0.12500
C651        C  0.36775492  0.40380092  0.53511341    -0.11000
C652        C  0.34326004  0.38282846  0.54054340    -0.12500
C653        C  0.17488769  0.08435741  0.50798500    -0.11000
C654        C  0.15105627  0.06316965  0.51422578    -0.12500
C655        C  0.26796161  0.14049984  0.43858846    -0.11000
C656        C  0.25341036  0.13762998  0.45439452    -0.12500
C657        C  0.24153638  0.19404592  0.51077179    -0.16200
C658        C  0.25092586  0.21944319  0.51750813     0.07900
C659        C  0.26282994  0.24944746  0.52507063     0.09700
C660        C  0.27269812  0.27453273  0.53250837    -0.17000
C661        C  0.43319567  0.22746573  0.76230806    -0.11000
C662        C  0.41885060  0.21605519  0.77822900    -0.12500
C663        C  0.01172246  0.25258821  0.70872770    -0.11000
C664        C  0.03571649  0.25549980  0.70259415    -0.12500
C665        C  0.31912463  0.37974237  0.68185143    -0.11000
C666        C  0.34351252  0.38308807  0.67632051    -0.12500
C667        C  0.42266442  0.40571841  0.62374537    -0.11000
C668        C  0.43687066  0.41630869  0.60764437    -0.12500
C669        C  0.41177886  0.34244610  0.68313835    -0.16200
C670        C  0.42126710  0.32676146  0.69030326     0.07900
C671        C  0.43316437  0.30861710  0.69775773     0.09700
C672        C  0.44288406  0.29296596  0.70462213    -0.17000
C673        C  0.20088408  0.07080336  0.86791203    -0.11000
C674        C  0.17657740  0.04963154  0.87337818    -0.12500
C675        C  0.09812659  0.49339245  0.92624131    -0.11000
C676        C  0.08411497  0.49012897  0.94237280    -0.12500
C677        C  0.00826947  0.25074479  0.84157748    -0.11000
C678        C  0.48422349  0.22973949  0.84769108    -0.12500
C679        C  0.10097006  0.30706452  0.77193979    -0.11000
C680        C  0.08661662  0.30405190  0.78787146    -0.12500
C681        C  0.07853952  0.35958553  0.84637957    -0.16200
C682        C  0.08856885  0.38496832  0.85329762     0.07900
C683        C  0.10059548  0.41506664  0.86065472     0.09700
C684        C  0.10995654  0.44031603  0.86763823    -0.17000
C685        C  0.27693900  0.07516154  0.27625610    -0.11000
C686        C  0.26586218  0.06073368  0.26030807    -0.12500
C687        C  0.24089854  0.45845085  0.20128826    -0.11000
C688        C  0.24366363  0.48248658  0.20710642    -0.12500
C689        C  0.08964592  0.07313904  0.12097655    -0.11000
C690        C  0.07850768  0.05884294  0.10499090    -0.12500
C691        C  0.11358760  0.15098086  0.17490965    -0.11000
C692        C  0.11681144  0.17513383  0.18093947    -0.12500
C693        C  0.19982479  0.04820641  0.20230110    -0.16200
C694        C  0.18396824  0.05757936  0.19528599     0.07900
C695        C  0.16607367  0.06969299  0.18773400     0.09700
C696        C  0.15100100  0.07988110  0.18056573    -0.17000
C697        C  0.24345263  0.48280534  0.34267994    -0.11000
C698        C  0.26472577  0.00692114  0.34838006    -0.12500
C699        C  0.18472748  0.39015191  0.27356922    -0.11000
C700        C  0.18782073  0.40440331  0.28956751    -0.12500
C701        C  0.99816647  0.39292491  0.42841343    -0.11000
C702        C  0.00118778  0.40689929  0.44454786    -0.12500
C703        C  0.44497703  0.31469536  0.37460049    -0.11000
C704        C  0.42416075  0.29038725  0.36867381    -0.12500
C705        C  0.05339342  0.38643514  0.36902137    -0.16200
C706        C  0.07866371  0.39630814  0.36190318     0.07900
C707        C  0.10864350  0.40790852  0.35436406     0.09700
C708        C  0.13385485  0.41692446  0.34738469    -0.17000
C709        C  0.09169635  0.12400854  0.03537099    -0.11000
C710        C  0.11273065  0.14803987  0.04147082    -0.12500
C711        C  0.16900160  0.24077967  0.11104813    -0.11000
C712        C  0.16603511  0.22643594  0.09512083    -0.12500
C713        C  0.35482294  0.23700290  0.95694111    -0.11000
C714        C  0.35107267  0.22280772  0.94081372    -0.12500
C715        C  0.41146492  0.31604630  0.00956992    -0.11000
C716        C  0.43245763  0.34051660  0.01501949    -0.12500
C717        C  0.30299593  0.24623244  0.01729657    -0.16200
C718        C  0.27780080  0.23658757  0.02445944     0.07900
C719        C  0.24767661  0.22482820  0.03168527     0.09700
C720        C  0.22221299  0.21545060  0.03825859    -0.17000
C721        C  0.09987037  0.22771931  0.59324639    -0.11000
C722        C  0.11021871  0.24165514  0.60948991    -0.12500
C723        C  0.07422349  0.12478599  0.53468754    -0.11000
C724        C  0.07785475  0.14931305  0.54015097    -0.12500
C725        C  0.45029150  0.34136014  0.51456110    -0.11000
C726        C  0.44766041  0.31755751  0.50825727    -0.12500
C727        C  0.41089209  0.22463824  0.43870444    -0.11000
C728        C  0.42253324  0.23919106  0.45451736    -0.12500
C729        C  0.49135096  0.25147529  0.51057013    -0.16200
C730        C  0.00750289  0.24218925  0.51717433     0.07900
C731        C  0.02570970  0.23035413  0.52461671     0.09700
C732        C  0.04092208  0.22046960  0.53202213    -0.17000
C733        C  0.40682524  0.29125576  0.86856031    -0.11000
C734        C  0.40972110  0.31539691  0.87426489    -0.12500
C735        C  0.43286218  0.39458179  0.92690148    -0.11000
C736        C  0.44410226  0.40911524  0.94279138    -0.12500
C737        C  0.25466160  0.40528441  0.78816881    -0.11000
C738        C  0.24359892  0.39118241  0.77209984    -0.12500
C739        C  0.28289720  0.00796976  0.84772221    -0.11000
C740        C  0.27961416  0.48375883  0.84176146    -0.12500
C741        C  0.31613786  0.41192339  0.84771535    -0.16200
C742        C  0.33137300  0.40188991  0.85486183     0.07900
C743        C  0.34958478  0.39009191  0.86237753     0.09700
C744        C  0.36572550  0.38100537  0.86933592    -0.17000
C745        C  0.09844323  0.17313110  0.68217189    -0.11000
C746        C  0.07745868  0.14871780  0.67663043    -0.12500
C747        C  0.02124950  0.07027770  0.62357258    -0.11000
C748        C  0.01783304  0.05623748  0.60740792    -0.12500
C749        C  0.25767100  0.45654820  0.70228455    -0.11000
C750        C  0.27876634  0.48048358  0.70848735    -0.12500
C751        C  0.33451857  0.07323135  0.77816670    -0.11000
C752        C  0.33165946  0.05881600  0.76228871    -0.12500
C753        C  0.46868990  0.07975968  0.68352267    -0.16200
C754        C  0.44356205  0.07022463  0.69080630     0.07900
C755        C  0.41354790  0.05844084  0.69832250     0.09700
C756        C  0.38815149  0.04886144  0.70512274    -0.17000
C757        C  0.30600395  0.50658313  0.71659326     0.82500
N758        N  0.33314624  0.51588195  0.70672223    -0.75800
C759        C  0.35923798  0.53918499  0.71492137     0.85000
N760        N  0.35831830  0.55300144  0.73298938    -0.75700
C761        C  0.33146239  0.54380094  0.74298135     0.85100
N762        N  0.30515995  0.52044094  0.73487940    -0.77400
C763        C  0.04990277  0.62226701  0.66934921     0.82500
N764        N  0.04950934  0.60852770  0.65070393    -0.75800
C765        C  0.02272532  0.58507247  0.64327616     0.85000
N766        N  0.99660438  0.57569464  0.65429451    -0.75700
C767        C  0.49692140  0.58939997  0.67273567     0.85100
N768        N  0.02349710  0.61280736  0.68024979    -0.77400
C769        C  0.27998716  0.95705597  0.83411184     0.82500
N770        N  0.26624830  0.94374310  0.81545739    -0.75800
C771        C  0.26847918  0.91973573  0.80784567     0.85000
N772        N  0.28447560  0.90933808  0.81870109    -0.75700
C773        C  0.29824080  0.92259201  0.83715112     0.85100
N774        N  0.29618714  0.94656424  0.84484951    -0.77400
C775        C  0.40789019  0.84135176  0.88179676     0.82500
N776        N  0.38935856  0.84951961  0.87164423    -0.75800
C777        C  0.38561823  0.87244134  0.87945168     0.85000
N778        N  0.40008474  0.88699243  0.89741360    -0.75700
C779        C  0.41842941  0.87891909  0.90767707     0.85100
N780        N  0.42231048  0.85593216  0.89997464    -0.77400
C781        C  0.44929290  0.79179761  0.50000942     0.82500
N782        N  0.46803108  0.78331472  0.50949461    -0.75800
C783        C  0.47134878  0.76042768  0.50111256     0.85000
N784        N  0.45622580  0.74619470  0.48325573    -0.75700
C785        C  0.43767028  0.75457463  0.47364768     0.85100
N786        N  0.43420412  0.77753216  0.48192431    -0.77400
C787        C  0.07722653  0.67609517  0.54726333     0.82500
N788        N  0.08998048  0.68943169  0.56613678    -0.75800
C789        C  0.08712242  0.71326970  0.57333976     0.85000
N790        N  0.07143980  0.72343331  0.56186405    -0.75700
C791        C  0.05865259  0.71014914  0.54319359     0.85100
N792        N  0.06133291  0.68635122  0.53590592    -0.77400
C793        C  0.38392695  0.78938355  0.00249632     0.82500
N794        N  0.38335870  0.77559536  0.98383151    -0.75800
C795        C  0.35657045  0.75186392  0.97665129     0.85000
N796        N  0.33063719  0.74226598  0.98792096    -0.75700
C797        C  0.33112249  0.75600725  0.00637065     0.85100
N798        N  0.35768396  0.77969738  0.01365036    -0.77400
C799        C  0.14002337  0.67412658  0.04948507     0.82500
N800        N  0.13928532  0.68816222  0.06770840    -0.75800
C801        C  0.16568458  0.71136981  0.07581370     0.85000
N802        N  0.19251986  0.72021597  0.06590524    -0.75700
C803        C  0.19332283  0.70621313  0.04790588     0.85100
N804        N  0.16714484  0.68306539  0.03969596    -0.77400
C805        C  0.47197529  0.84143639  0.38230409     0.82500
N806        N  0.47142903  0.85466980  0.40096908    -0.75800
C807        C  0.49763531  0.87861714  0.40868506     0.85000
N808        N  0.02411953  0.88901613  0.39792734    -0.75700
C809        C  0.02474623  0.87583596  0.37946870     0.85100
N810        N  0.49875323  0.85193138  0.37167010    -0.77400
C811        C  0.21572623  0.95689868  0.33504808     0.82500
N812        N  0.18897411  0.94850533  0.34520559    -0.75800
C813        C  0.16236617  0.92563546  0.33728428     0.85000
N814        N  0.16239129  0.91137478  0.31919628    -0.75700
C815        C  0.18887622  0.91970005  0.30892844     0.85100
N816        N  0.21567694  0.94262546  0.31675056    -0.77400
C817        C  0.11428847  0.62451505  0.16712984     0.82500
N818        N  0.10076619  0.61133632  0.14839122    -0.75800
C819        C  0.10341304  0.58762850  0.14064681     0.85000
N820        N  0.11958000  0.57739489  0.15145408    -0.75700
C821        C  0.13311470  0.59051529  0.16998280     0.85100
N822        N  0.13065341  0.61418040  0.17782219    -0.77400
C823        C  0.24165008  0.50825620  0.21480127     0.82500
N824        N  0.22330026  0.51660009  0.20459226    -0.75800
C825        C  0.21942282  0.53937537  0.21251364     0.85000
N826        N  0.23356347  0.55360615  0.23063446    -0.75700
C827        C  0.25170961  0.54534174  0.24095777     0.85100
N828        N  0.25574236  0.52250424  0.23314471    -0.77400
C829        C  0.03464097  0.77791043  0.83369752     0.82500
N830        N  0.04817469  0.77730013  0.81519176    -0.75800
C831        C  0.07185979  0.80359148  0.80735769     0.85000
N832        N  0.08171627  0.83019490  0.81783999    -0.75700
C833        C  0.06823776  0.83087711  0.83613252     0.85100
N834        N  0.04459496  0.80481056  0.84406371    -0.77400
C835        C  0.15046791  0.52190986  0.88073953     0.82500
N836        N  0.13628010  0.52161040  0.89913355    -0.75800
C837        C  0.11322405  0.49474394  0.90674380     0.85000
N838        N  0.10469194  0.96844432  0.89618083    -0.75700
C839        C  0.11886802  0.96867117  0.87799641     0.85100
N840        N  0.14188149  0.99533804  0.87027865    -0.77400
C841        C  0.36994710  0.88188386  0.66911731     0.82500
N842        N  0.38407210  0.89556944  0.65064550    -0.75800
C843        C  0.40754657  0.89220265  0.64330657     0.85000
N844        N  0.41655067  0.87509409  0.65422285    -0.75700
C845        C  0.40246009  0.86136207  0.67247620     0.85100
N846        N  0.37903768  0.86456229  0.67991520    -0.77400
C847        C  0.48550708  0.75365015  0.71666892     0.82500
N848        N  0.47610057  0.77125076  0.70658896    -0.75800
C849        C  0.45267858  0.77397492  0.71462553     0.85000
N850        N  0.43886493  0.75943998  0.73274330    -0.75700
C851        C  0.44817400  0.74203276  0.74294112     0.85100
N852        N  0.47164146  0.73913929  0.73499967    -0.77400
C853        C  0.20073450  0.61174577  0.49982962     0.82500
N854        N  0.21496467  0.61096333  0.48171894    -0.75800
C855        C  0.23805324  0.63737620  0.47354101     0.85000
N856        N  0.24660991  0.66427465  0.48327965    -0.75700
C857        C  0.23240796  0.66512780  0.50116770     0.85100
N858        N  0.20938343  0.63892399  0.50944767    -0.77400
C859        C  0.31655727  0.85533214  0.54762260     0.82500
N860        N  0.30658313  0.82913666  0.53635272    -0.75800
C861        C  0.28285046  0.80260282  0.54363445     0.85000
N862        N  0.26934958  0.80210817  0.56220384    -0.75700
C863        C  0.27923769  0.82800448  0.57358215     0.85100
N864        N  0.30300141  0.85474991  0.56639135    -0.77400
C865        C  0.20307686  0.54696902  0.00211992     0.82500
N866        N  0.21127702  0.52843920  0.01223408    -0.75800
C867        C  0.23390276  0.52439783  0.00420576     0.85000
N868        N  0.24809202  0.53853460  0.98607470    -0.75700
C869        C  0.23994108  0.55684724  0.97586403     0.85100
N870        N  0.21727472  0.56104202  0.98377945    -0.77400
C871        C  0.31883033  0.91878201  0.04887359     0.82500
N872        N  0.30564975  0.90517551  0.06759016    -0.75800
C873        C  0.28173514  0.90752383  0.07526603     0.85000
N874        N  0.27132157  0.92350549  0.06442408    -0.75700
C875        C  0.28444749  0.93713264  0.04592251     0.85100
N876        N  0.30831791  0.93496990  0.03815221    -0.77400
C877        C  0.15256714  0.58718562  0.38330278     0.82500
N878        N  0.13886719  0.57281240  0.40171150    -0.75800
C879        C  0.11527305  0.57552737  0.40962003     0.85000
N880        N  0.10567630  0.59261758  0.39930153    -0.75700
C881        C  0.11933697  0.60701460  0.38110752     0.85100
N882        N  0.14286780  0.60445567  0.37310967    -0.77400
C883        C  0.03627265  0.71417329  0.33492745     0.82500
N884        N  0.05013064  0.72778326  0.31636893    -0.75800
C885        C  0.07338531  0.72424204  0.30877162     0.85000
N886        N  0.08245307  0.70705804  0.31954313    -0.75700
C887        C  0.06861633  0.69340983  0.33788756     0.85100
N888        N  0.04543254  0.69680233  0.34557373    -0.77400
C889        C  0.48525059  0.68878812  0.21489530     0.82500
N890        N  0.47669786  0.66213822  0.20456014    -0.75800
C891        C  0.45374799  0.63551032  0.21236310     0.85000
N892        N  0.43954730  0.63539170  0.23050750    -0.75700
C893        C  0.44801188  0.66175485  0.24097045     0.85100
N894        N  0.47103628  0.68861179  0.23326832    -0.77400
C895        C  0.36934709  0.94527537  0.16706856     0.82500
N896        N  0.37952945  0.97210418  0.17757369    -0.75800
C897        C  0.40343340  0.99811289  0.16980448     0.85000
N898        N  0.41694734  0.99745168  0.15151732    -0.75700
C899        C  0.40686074  0.97091124  0.14089407     0.85100
N900        N  0.38291354  0.94468563  0.14857500    -0.77400
C901        C  0.27904176  0.77686368  0.33507741     0.82500
N902        N  0.29694714  0.80349876  0.34548470    -0.75800
C903        C  0.30050460  0.83009173  0.33771619     0.85000
N904        N  0.28650595  0.83019658  0.31953162    -0.75700
C905        C  0.26880208  0.80384870  0.30899783     0.85100
N906        N  0.26508563  0.77702696  0.31666630    -0.77400
C907        C  0.40637188  0.52032238  0.38301505     0.82500
N908        N  0.38970635  0.99349490  0.37252062    -0.75800
C909        C  0.38721372  0.96741103  0.38044932     0.85000
N910        N  0.40103337  0.96799123  0.39888076    -0.75700
C911        C  0.41750978  0.49452366  0.40950537     0.85100
N912        N  0.42017960  0.52084454  0.40166450    -0.77400
C913        C  0.24102413  0.68766479  0.71582337     0.82500
N914        N  0.22550354  0.66109234  0.70484603    -0.75800
C915        C  0.22363323  0.63514570  0.71252117     0.85000
N916        N  0.23688433  0.63560102  0.73118714    -0.75700
C917        C  0.25219717  0.66186790  0.74228496     0.85100
N918        N  0.25425923  0.68804078  0.73469580    -0.77400
C919        C  0.11401504  0.94429226  0.66796292     0.82500
N920        N  0.13303352  0.97106229  0.67787702    -0.75800
C921        C  0.13724803  0.99777768  0.66983100     0.85000
N922        N  0.12273650  0.99783387  0.65188729    -0.75700
C923        C  0.10391788  0.97132905  0.64186479     0.85100
N924        N  0.09956818  0.94441618  0.64980241    -0.77400
C925        C  0.37970779  0.54140142  0.49920624     0.82500
N926        N  0.38077671  0.55678954  0.48123360    -0.75800
C927        C  0.35444500  0.55324275  0.47274013     0.85000
N928        N  0.32733720  0.53432804  0.48204108    -0.75700
C929        C  0.32620094  0.51889995  0.49979608     0.85100
N930        N  0.35233191  0.52230726  0.50838747    -0.77400
C931        C  0.13631208  0.91390342  0.54672661     0.82500
N932        N  0.16233773  0.92934143  0.53516628    -0.75800
C933        C  0.18876726  0.93173643  0.54229446     0.85000
N934        N  0.18934701  0.91912725  0.56102503    -0.75700
C935        C  0.16362630  0.90389440  0.57270985     0.85100
N936        N  0.13698419  0.90133324  0.56565749    -0.77400
C937        C  0.30489309  0.75093223  0.21462572     0.82500
N938        N  0.33155607  0.76886982  0.20424798    -0.75800
C939        C  0.35814240  0.77237036  0.21201162     0.85000
N940        N  0.35819981  0.75828488  0.23016823    -0.75700
C941        C  0.33182246  0.74054418  0.24066696     0.85100
N942        N  0.30502358  0.73689238  0.23299904    -0.77400
C943        C  0.04868073  0.87899693  0.16709504     0.82500
N944        N  0.02184021  0.86224156  0.17757123    -0.75800
C945        C  0.49574037  0.85979848  0.16968330     0.85000
N946        N  0.99633584  0.87375480  0.15130941    -0.75700
C947        C  0.02288670  0.89031411  0.14071511     0.85100
N948        N  0.04919501  0.89292157  0.14851424    -0.77400
C949        C  0.44593872  0.61025396  0.00189178     0.82500
N950        N  0.46468798  0.63709483  0.01181396    -0.75800
C951        C  0.46860913  0.66368675  0.00375522     0.85000
N952        N  0.45410405  0.66356346  0.98576407    -0.75700
C953        C  0.43553578  0.63699911  0.97571960     0.85100
N954        N  0.43147885  0.61018999  0.98367608    -0.77400
C955        C  0.07417902  0.85401475  0.04884720     0.82500
N956        N  0.05822217  0.82733887  0.03804400    -0.75800
C957        C  0.05633409  0.80138128  0.04571849     0.85000
N958        N  0.07001511  0.80193608  0.06421599    -0.75700
C959        C  0.08577389  0.82831352  0.07514151     0.85100
N960        N  0.08783963  0.85448696  0.06754822    -0.77400
C961        C  0.21483377  0.71197056  0.83395953     0.82500
N962        N  0.21552671  0.72607749  0.81541967    -0.75800
C963        C  0.18924973  0.72340061  0.80748658     0.85000
N964        N  0.16259246  0.70661721  0.81790204    -0.75700
C965        C  0.16183904  0.69249237  0.83622063     0.85100
N966        N  0.18788131  0.69499065  0.84424891    -0.77400
C967        C  0.47115269  0.58460167  0.88171388     0.82500
N968        N  0.49762307  0.60233839  0.87107989    -0.75800
C969        C  0.02435456  0.60609366  0.87873689     0.85000
N970        N  0.02475789  0.59246039  0.89702267    -0.75700
C971        C  0.49857799  0.57492992  0.90777358     0.85100
N972        N  0.47162124  0.57100726  0.90021902    -0.77400
O973        O  0.36376681  0.60792973  0.80479952    -0.77800
O974        O  0.24684255  0.61380297  0.87726544    -0.79400
O975        O  0.28384936  0.55345568  0.83981375    -0.76400
O976        O  0.28172868  0.62859606  0.80485667    -0.74800
O977        O  0.31329327  0.68059134  0.80407924    -0.76600
O978        O  0.30949329  0.55123946  0.86906360    -0.77500
O979        O  0.24475654  0.58686613  0.84749604    -0.78800
O980        O  0.31179523  0.58768578  0.80381609    -0.79100
Eu981      Eu  0.29743710  0.60698315  0.83436934     2.39200
O982        O  0.30141612  0.65252236  0.84670833    -0.86600
O983        O  0.33973908  0.60354299  0.84651504    -0.90200
C984        C  0.33696037  0.59064015  0.79672392     1.04500
C985        C  0.23245011  0.59232312  0.86359364     1.04300
C986        C  0.29196156  0.53916493  0.85282635     1.04200
C987        C  0.29117557  0.65544601  0.79689173     1.02100
H988        H  0.27994312  0.58833928  0.87688049     0.31800
O989        O  0.29783449  0.60629269  0.87164092    -0.99000
H990        H  0.34327525  0.64909753  0.80695324     0.31900
O991        O  0.34329153  0.64906198  0.82224721    -1.01500
O992        O  0.32171047  0.68844683  0.91395432    -0.78800
O993        O  0.43882701  0.68514011  0.83980772    -0.78300
O994        O  0.30379796  0.58752948  0.91365306    -0.76700
O995        O  0.30722461  0.70848155  0.84015379    -0.80100
O996        O  0.38425372  0.71060712  0.80493305    -0.77900
O997        O  0.37860986  0.58786159  0.87734340    -0.76600
O998        O  0.40464223  0.67057229  0.91373137    -0.78100
O999        O  0.40437522  0.74537690  0.87748742    -0.80000
O1000       O  0.37369984  0.61846900  0.91433570    -0.76800
O1001       O  0.37940583  0.74755357  0.84783252    -0.79500
O1002       O  0.28255690  0.61839548  0.91445624    -0.75200
O1003       O  0.40574070  0.61287978  0.84768925    -0.75200
O1004       O  0.40456014  0.67894094  0.80387324    -0.74900
O1005       O  0.27945063  0.68290837  0.86945761    -0.78400
O1006       O  0.37383065  0.70965464  0.91449183    -0.77800
O1007       O  0.44102077  0.71290281  0.86912322    -0.76100
Eu1008     Eu  0.30076299  0.65198192  0.88383290     2.39800
Eu1009     Eu  0.38534009  0.64518424  0.83435952     2.39600
Eu1010     Eu  0.34024857  0.60337780  0.88363068     2.38400
Eu1011     Eu  0.34707724  0.69487386  0.83453021     2.39900
Eu1012     Eu  0.38889272  0.69145004  0.88374048     2.39800
O1013       O  0.38870568  0.69085795  0.84662663    -0.90500
O1014       O  0.34331032  0.64890988  0.89554245    -0.89400
C1015       C  0.34855056  0.70593393  0.92195096     1.04600
C1016       C  0.45309251  0.70751709  0.85284834     1.03400
C1017       C  0.28630633  0.59677347  0.92175170     1.02800
C1018       C  0.28489736  0.70043971  0.85322277     1.04800
C1019       C  0.40154271  0.70112189  0.79681574     1.03700
C1020       C  0.40030011  0.59516811  0.86382311     1.02500
C1021       C  0.39533996  0.64376010  0.92173808     1.02600
C1022       C  0.39711465  0.75980143  0.86396907     1.06400
H1023       H  0.40391589  0.64630926  0.87688439     0.32600
O1024       O  0.38596248  0.64620631  0.87161216    -1.02700
H1025       H  0.34595654  0.71218581  0.87709190     0.34600
O1026       O  0.34604058  0.69434458  0.87178134    -1.05200
O1027       O  0.44970888  0.94373153  0.96958460    -0.77800
O1028       O  0.07014531  0.94641387  0.04335347    -0.79400
O1029       O  0.05010291  0.96109752  0.96937985    -0.76400
O1030       O  0.47558249  0.88650398  0.00584427    -0.74800
O1031       O  0.44859991  0.88436319  0.03559019    -0.76600
O1032       O  0.07150155  0.01322852  0.96880563    -0.77500
O1033       O  0.04462405  0.91885977  0.01396227    -0.78800
O1034       O  0.48036885  0.92225815  0.96890267    -0.79100
Eu1035     Eu  0.01391979  0.94041428  0.99955773     2.39200
O1036       O  0.01441457  0.94090503  0.03667535    -0.86600
O1037       O  0.01100823  0.98304706  0.98784238    -0.90200
C1038       C  0.45884258  0.92611005  0.96153529     1.04500
C1039       C  0.06205805  0.92412441  0.03023363     1.04300
C1040       C  0.06756073  0.98786988  0.96132495     1.04200
C1041       C  0.45401570  0.87208382  0.01944514     1.02100
H1042       H  0.07426418  0.98546832  0.00636248     0.31800
O1043       O  0.05643007  0.98558588  0.01166511    -0.99000
H1044       H  0.45033459  0.91978745  0.00638813     0.31900
O1045       O  0.46829919  0.93762423  0.01167568    -1.01500
O1046       O  0.07278223  0.52389690  0.07844786    -0.78800
O1047       O  0.44979634  0.51824821  0.00632379    -0.78300
O1048       O  0.10752167  0.54392671  0.00624337    -0.76700
O1049       O  0.49030711  0.92115630  0.07844855    -0.80100
O1050       O  0.41538971  0.92324064  0.04332534    -0.77900
O1051       O  0.03292874  0.54457390  0.96978436    -0.76600
O1052       O  0.04726307  0.57853299  0.04340077    -0.78100
O1053       O  0.47031576  0.50354018  0.07868512    -0.80000
O1054       O  0.07502185  0.58070584  0.01408924    -0.76800
O1055       O  0.44973943  0.95152288  0.07949177    -0.79500
O1056       O  0.10947718  0.01880770  0.03588831    -0.75200
O1057       O  0.48077889  0.51389620  0.96923171    -0.75200
O1058       O  0.41326946  0.94899751  0.01411163    -0.74900
O1059       O  0.04229822  0.95272961  0.07945025    -0.78400
O1060       O  0.04132539  0.54444504  0.07940534    -0.77800
O1061       O  0.47495831  0.54538887  0.03594106    -0.76100
Eu1062     Eu  0.05677931  0.98648243  0.04895521     2.39800
Eu1063     Eu  0.46549835  0.98008136  0.99972943     2.39600
Eu1064     Eu  0.05365108  0.52850634  0.99968358     2.38400
Eu1065     Eu  0.46890806  0.93705400  0.04892474     2.39900
Eu1066     Eu  0.00738595  0.52503124  0.04903786     2.39800
O1067       O  0.46563812  0.97949843  0.03684979    -0.90500
O1068       O  0.05297907  0.52821837  0.03680161    -0.89400
C1069       C  0.06347394  0.54138567  0.08647318     1.04600
C1070       C  0.45708657  0.53987844  0.01989427     1.03400
C1071       C  0.12183240  0.53661987  0.01983266     1.02800
C1072       C  0.01708846  0.93057183  0.08652935     1.04800
C1073       C  0.40112130  0.93130736  0.03026646     1.03700
C1074       C  0.00611287  0.53548596  0.96184971     1.02500
C1075       C  0.06958107  0.59280920  0.03031609     1.02600
C1076       C  0.45291988  0.97672352  0.08669854     1.05200
H1077       H  0.00849983  0.54365384  0.00659516     0.32600
O1078       O  0.00841923  0.52568685  0.01180472    -1.02700
H1079       H  0.01105466  0.98284046  0.07645310     0.34600
O1080       O  0.01102414  0.98285321  0.06115846    -1.05200
O1081       O  0.40527580  0.68985470  0.41208324    -0.77800
O1082       O  0.28284017  0.68468444  0.33952240    -0.79400
O1083       O  0.37995795  0.74477613  0.37689496    -0.76400
O1084       O  0.30279065  0.66973333  0.41202290    -0.74800
O1085       O  0.28235152  0.61773869  0.41292797    -0.76600
O1086       O  0.40752268  0.74697112  0.34746951    -0.77500
O1087       O  0.30786428  0.71176926  0.36919981    -0.78800
O1088       O  0.37383989  0.71043257  0.41300987    -0.79100
Eu1089     Eu  0.34009779  0.69126561  0.38249567     2.39200
O1090       O  0.29838590  0.64575907  0.37024556    -0.86600
O1091       O  0.38575786  0.69453014  0.37028595    -0.90200
C1092       C  0.39590445  0.70727266  0.42014090     1.04500
C1093       C  0.29014820  0.70635214  0.35306611     1.04300
C1094       C  0.40215856  0.75908553  0.36372953     1.04200
C1095       C  0.28540246  0.64292468  0.42005560     1.02100
H1096       H  0.34123809  0.70982427  0.33995743     0.31800
O1097       O  0.34108174  0.69185159  0.34523666    -0.99000
H1098       H  0.34372385  0.64901411  0.40992661     0.31900
O1099       O  0.34374030  0.64908389  0.39463097    -1.01500
O1100       O  0.28240436  0.60969017  0.30307276    -0.78800
O1101       O  0.40308166  0.61285995  0.37682374    -0.78300
O1102       O  0.36550054  0.71032051  0.30301676    -0.76700
O1103       O  0.24815198  0.58991333  0.37692270    -0.80100
O1104       O  0.32291647  0.58716054  0.41173825    -0.77900
O1105       O  0.44015292  0.71020242  0.33950812    -0.76600
O1106       O  0.38342766  0.62757798  0.30301247    -0.78100
O1107       O  0.30819808  0.55272031  0.33937646    -0.80000
O1108       O  0.40475329  0.67970311  0.30249126    -0.76800
O1109       O  0.28110265  0.55066324  0.36904674    -0.79500
O1110       O  0.31336575  0.67960486  0.30240805    -0.75200
O1111       O  0.44226085  0.68502849  0.36907108    -0.75200
O1112       O  0.37492809  0.61860570  0.41274459    -0.74900
O1113       O  0.24600605  0.61552903  0.34763829    -0.78400
O1114       O  0.31323542  0.58840320  0.30233788    -0.77800
O1115       O  0.37745002  0.58511367  0.34751833    -0.76100
Eu1116     Eu  0.29821216  0.64622433  0.33312266     2.39800
Eu1117     Eu  0.38954069  0.65275941  0.38242357     2.39600
Eu1118     Eu  0.38628657  0.69470680  0.33314500     2.38400
Eu1119     Eu  0.30160006  0.60333557  0.38236675     2.39900
Eu1120     Eu  0.34672121  0.60660587  0.33300889     2.39800
O1121       O  0.34713428  0.60720241  0.37013062    -0.90500
O1122       O  0.34374023  0.64919767  0.32125166    -0.89400
C1123       C  0.29162637  0.59214707  0.29500563     1.04600
C1124       C  0.39496397  0.59050694  0.36376551     1.03400
C1125       C  0.33871529  0.70110679  0.29498349     1.02800
C1126       C  0.23390925  0.59806162  0.36390195     1.04800
C1127       C  0.34969042  0.59640041  0.41976076     1.03700
C1128       C  0.45453827  0.70283365  0.35297711     1.02500
C1129       C  0.40104811  0.65441469  0.29505995     1.02600
C1130       C  0.28652157  0.53836264  0.35292288     1.05200
H1131       H  0.40690632  0.65170056  0.33987557     0.32600
O1132       O  0.38906694  0.65181352  0.34516182    -1.02700
H1133       H  0.28306891  0.58599876  0.33982649     0.34600
O1134       O  0.30105016  0.60381565  0.34511173    -1.05200
O1135       O  0.21306791  0.91118289  0.71024211    -0.77800
O1136       O  0.21610109  0.79366367  0.63640340    -0.79400
O1137       O  0.27309639  0.87681204  0.67272081    -0.76400
O1138       O  0.19828839  0.87653927  0.63614235    -0.74800
O1139       O  0.14615968  0.84572171  0.63563929    -0.76600
O1140       O  0.27532441  0.85200382  0.70244967    -0.77500
O1141       O  0.23741592  0.84578067  0.63574347    -0.78800
O1142       O  0.24061154  0.91333402  0.68081321    -0.79100
Eu1143     Eu  0.21915103  0.86110998  0.66635974     2.39200
O1144       O  0.17656826  0.81548641  0.65468453    -0.86600
O1145       O  0.21864208  0.86106459  0.70349350    -0.90200
C1146       C  0.23535574  0.92543213  0.69713173     1.04500
C1147       C  0.23364417  0.82044022  0.62836072     1.04300
C1148       C  0.28756287  0.86971483  0.68631251     1.04200
C1149       C  0.17146712  0.86717801  0.62811055     1.02100
H1150       H  0.23995475  0.81827107  0.67320278     0.31800
O1151       O  0.22208961  0.81834570  0.67848126    -0.99000
H1152       H  0.17408367  0.87618992  0.67316926     0.31900
O1153       O  0.17393042  0.85823811  0.67848775    -1.01500
O1154       O  0.14153933  0.71910192  0.67298386    -0.78800
O1155       O  0.13569904  0.83626738  0.74530666    -0.78300
O1156       O  0.23641596  0.77973708  0.71019806    -0.76700
O1157       O  0.11529055  0.77595559  0.63642474    -0.80100
O1158       O  0.11581478  0.85116030  0.67281571    -0.77900
O1159       O  0.23830760  0.85666063  0.74536374    -0.76600
O1160       O  0.15632114  0.75416175  0.74540083    -0.78100
O1161       O  0.08113638  0.75626467  0.71041652    -0.80000
O1162       O  0.20832337  0.78575927  0.74621733    -0.76800
O1163       O  0.07889492  0.78183191  0.68112631    -0.79500
O1164       O  0.21068361  0.75182237  0.68097936    -0.75200
O1165       O  0.20667010  0.87699963  0.74631187    -0.75200
O1166       O  0.14085542  0.87826190  0.70248437    -0.74900
O1167       O  0.14614746  0.75469648  0.63583870    -0.78400
O1168       O  0.11442069  0.71704609  0.70263492    -0.77800
O1169       O  0.11539647  0.78429354  0.74633646    -0.76100
Eu1170     Eu  0.17967834  0.77301340  0.66651019     2.39800
Eu1171     Eu  0.17300344  0.85773562  0.71576635     2.39600
Eu1172     Eu  0.22264099  0.81949604  0.71574094     2.38400
Eu1173     Eu  0.13102833  0.81251586  0.66649117     2.39900
Eu1174     Eu  0.13466111  0.76978547  0.71584881     2.39800
O1175       O  0.13132474  0.81212009  0.70362123    -0.90500
O1176       O  0.18025489  0.77375913  0.70362918    -0.89400
C1177       C  0.11994244  0.70471621  0.68656843     1.04600
C1178       C  0.11837346  0.80948086  0.75339282     1.03400
C1179       C  0.22832960  0.75735839  0.69716400     1.02800
C1180       C  0.12458483  0.75843920  0.62840157     1.04800
C1181       C  0.12320560  0.87289010  0.68633005     1.03700
C1182       C  0.22880785  0.87396094  0.75344153     1.02500
C1183       C  0.18317369  0.76362963  0.75338731     1.02600
C1184       C  0.06684365  0.76437630  0.69740161     1.05200
H1185       H  0.17680482  0.81570148  0.74325530     0.32600
O1186       O  0.17678224  0.81567860  0.72795978    -1.02700
H1187       H  0.11602601  0.75225573  0.67334058     0.34600
O1188       O  0.13396778  0.77015298  0.67858583    -1.05200
O1189       O  0.19821621  0.77535790  0.13774763    -0.77800
O1190       O  0.08114788  0.78100643  0.21030128    -0.79400
O1191       O  0.11797030  0.72064694  0.17288592    -0.76400
O1192       O  0.11597343  0.79557192  0.13768624    -0.74800
O1193       O  0.14756303  0.84755850  0.13674739    -0.76600
O1194       O  0.14351683  0.71846937  0.20220818    -0.77500
O1195       O  0.07900015  0.75383530  0.18065284    -0.78800
O1196       O  0.14621687  0.75494431  0.13680372    -0.79100
Eu1197     Eu  0.13170232  0.77416041  0.16731246     2.39200
O1198       O  0.13559954  0.81972099  0.17951891    -0.86600
O1199       O  0.17405781  0.77081048  0.17951889    -0.90200
C1200       C  0.17141629  0.75803622  0.12967260     1.04500
C1201       C  0.06674293  0.75932425  0.19678088     1.04300
C1202       C  0.12597504  0.70636203  0.18597778     1.04200
C1203       C  0.12543757  0.82236281  0.12961120     1.02100
H1204       H  0.11431196  0.75566947  0.20981932     0.31800
O1205       O  0.13217363  0.77362227  0.20455699    -0.99000
H1206       H  0.17761385  0.81621096  0.13987044     0.31900
O1207       O  0.17759427  0.81621333  0.15516645    -1.01500
O1208       O  0.15572917  0.85573521  0.24671537    -0.78800
O1209       O  0.27314809  0.85264212  0.17285969    -0.78300
O1210       O  0.13773017  0.75472896  0.24659635    -0.76700
O1211       O  0.14130462  0.87555313  0.17285619    -0.80100
O1212       O  0.21857588  0.87766529  0.13771553    -0.77900
O1213       O  0.21276841  0.75504186  0.21029266    -0.76600
O1214       O  0.23878819  0.83789329  0.24673194    -0.78100
O1215       O  0.23850756  0.91265509  0.21028112    -0.80000
O1216       O  0.20787178  0.78578063  0.24734469    -0.76800
O1217       O  0.21362666  0.91475023  0.18053864    -0.79500
O1218       O  0.11646207  0.78556932  0.24724006    -0.75200
O1219       O  0.24002988  0.78013310  0.18069757    -0.75200
O1220       O  0.23904850  0.84613531  0.13688405    -0.74900
O1221       O  0.11367233  0.85012711  0.20224267    -0.78400
O1222       O  0.20785163  0.87704422  0.24740621    -0.77800
O1223       O  0.27529778  0.88035295  0.20219188    -0.76100
Eu1224     Eu  0.13502273  0.81927418  0.21665772     2.39800
Eu1225     Eu  0.21968975  0.81248486  0.16738532     2.39600
Eu1226     Eu  0.17447154  0.77066987  0.21664961     2.38400
Eu1227     Eu  0.18128856  0.86204048  0.16728970     2.39900
Eu1228     Eu  0.22309388  0.85879294  0.21670324     2.39800
O1229       O  0.22290409  0.85810888  0.17957463    -0.90500
O1230       O  0.17753006  0.81624020  0.22853025    -0.89400
C1231       C  0.18249375  0.87327076  0.25477326     1.04600
C1232       C  0.28739844  0.87501248  0.18591347     1.03400
C1233       C  0.12009814  0.76389783  0.25458781     1.02800
C1234       C  0.11902028  0.86756069  0.18596776     1.04800
C1235       C  0.23597017  0.86821881  0.12971068     1.03700
C1236       C  0.23448292  0.76233007  0.19678968     1.02500
C1237       C  0.22948546  0.81108027  0.25474527     1.02600
C1238       C  0.23127812  0.92702985  0.19670005     1.05200
H1239       H  0.23815789  0.81360878  0.20991965     0.32600
O1240       O  0.22021941  0.81352353  0.20463657    -1.02700
H1241       H  0.18014660  0.87945448  0.20983803     0.34600
O1242       O  0.18027276  0.86161707  0.20456454    -1.05200
O1243       O  0.48860358  0.52192429  0.58051488    -0.77800
O1244       O  0.10570053  0.51843829  0.50644567    -0.79400
O1245       O  0.07195654  0.50443564  0.58021186    -0.76400
O1246       O  0.07143035  0.57881607  0.54382321    -0.74800
O1247       O  0.04620112  0.58082468  0.51426248    -0.76600
O1248       O  0.04125154  0.95230436  0.58095764    -0.77500
O1249       O  0.10793022  0.54629823  0.53571374    -0.78800
O1250       O  0.04071893  0.54315898  0.58105823    -0.79100
Eu1251     Eu  0.05581433  0.52491058  0.55027921     2.39200
O1252       O  0.05548790  0.52408592  0.51316834    -0.86600
O1253       O  0.01036788  0.98237288  0.56223866    -0.90200
C1254       C  0.01542362  0.53942608  0.58851946     1.04500
C1255       C  0.11997900  0.54086675  0.51945157     1.04300
C1256       C  0.06288102  0.97769970  0.58824743     1.04200
C1257       C  0.06411895  0.59318301  0.53029261     1.02100
H1258       H  0.07092756  0.97965826  0.54344040     0.31800
O1259       O  0.05295956  0.97959641  0.53823994    -0.99000
H1260       H  0.01284777  0.54563753  0.54362262     0.31900
O1261       O  0.01292411  0.52777235  0.53834872    -1.01500
O1262       O  0.03052601  0.94133258  0.47130348    -0.78800
O1263       O  0.41380298  0.94693039  0.54424297    -0.78300
O1264       O  0.04545375  0.92095701  0.54387720    -0.76700
O1265       O  0.05103488  0.54374634  0.47147974    -0.80100
O1266       O  0.47346884  0.54106491  0.50651848    -0.77900
O1267       O  0.47107439  0.92130641  0.58067703    -0.76600
O1268       O  0.45089186  0.88666156  0.50671715    -0.78100
O1269       O  0.44829212  0.96159918  0.47170525    -0.80000
O1270       O  0.47649564  0.88455992  0.53603550    -0.76800
O1271       O  0.47993038  0.51358019  0.47067861    -0.79500
O1272       O  0.07237970  0.94579678  0.51411405    -0.75200
O1273       O  0.44978303  0.95213120  0.58129551    -0.75200
O1274       O  0.44591637  0.51563440  0.53592890    -0.74900
O1275       O  0.07151929  0.51223037  0.47050958    -0.78400
O1276       O  0.47851936  0.92088929  0.47053314    -0.77800
O1277       O  0.41157548  0.91980673  0.51455031    -0.76100
Eu1278     Eu  0.05219710  0.97841225  0.50098014     2.39800
Eu1279     Eu  0.46775493  0.98531928  0.55050660     2.39600
Eu1280     Eu  0.00734538  0.93679830  0.55045898     2.38400
Eu1281     Eu  0.01382123  0.52804889  0.50108228     2.39900
Eu1282     Eu  0.46423710  0.94009019  0.50118619     2.39800
O1283       O  0.46828071  0.98568532  0.51339958    -0.90500
O1284       O  0.00666434  0.93685694  0.51332517    -0.89400
C1285       C  0.00368122  0.92401347  0.46328639     1.04600
C1286       C  0.39933613  0.92531134  0.53067672     1.03400
C1287       C  0.06692331  0.92800001  0.53020392     1.02800
C1288       C  0.06845185  0.53437028  0.46342063     1.04800
C1289       C  0.45106790  0.53284996  0.51955667     1.03700
C1290       C  0.45361249  0.93063976  0.58873857     1.02500
C1291       C  0.45903719  0.87244202  0.51976661     1.02600
C1292       C  0.45770267  0.98839206  0.46363607     1.05200
H1293       H  0.44703073  0.92166186  0.54378685     0.32600
O1294       O  0.46486439  0.93959080  0.53846444    -1.02700
H1295       H  0.00997498  0.98216462  0.47363307     0.34600
O1296       O  0.01004402  0.98217210  0.48892742    -1.05200
C1297       C  0.00014899  0.56119476  0.92723645    -0.11000
C1298       C  0.00370921  0.55025537  0.94317880    -0.12500
C1299       C  0.44332727  0.58269993  0.87422470    -0.11000
C1300       C  0.42208277  0.58553644  0.86844727    -0.12500
C1301       C  0.18882922  0.73759953  0.78794475    -0.11000
C1302       C  0.18572521  0.74878908  0.77196887    -0.12500
C1303       C  0.26281233  0.70953982  0.84811749    -0.11000
C1304       C  0.24193580  0.71273682  0.84193575    -0.12500
C1305       C  0.13310090  0.67406701  0.84641740    -0.16200
C1306       C  0.10775517  0.65874380  0.85339821     0.07900
C1307       C  0.07773830  0.64082062  0.86093261     0.09700
C1308       C  0.05258048  0.62517350  0.86812448    -0.17000
C1309       C  0.09954321  0.82773276  0.09486134    -0.11000
C1310       C  0.11061783  0.82475127  0.11094671    -0.12500
C1311       C  0.07105518  0.90191403  0.03525066    -0.11000
C1312       C  0.07439306  0.88101414  0.04119764    -0.12500
C1313       C  0.44409045  0.58257161  0.00963944    -0.11000
C1314       C  0.44716661  0.56148119  0.01543597    -0.12500
C1315       C  0.42110923  0.63803512  0.95643363    -0.11000
C1316       C  0.40996684  0.64134179  0.94049634    -0.12500
C1317       C  0.48874369  0.69226408  0.01364054    -0.16200
C1318       C  0.00506425  0.71752983  0.02048177     0.07900
C1319       C  0.02339460  0.74755193  0.02794537     0.09700
C1320       C  0.03861207  0.77281917  0.03510474    -0.17000
C1321       C  0.07585312  0.87971658  0.17489988    -0.11000
C1322       C  0.09685294  0.87659128  0.18091215    -0.12500
C1323       C  0.02237432  0.90438441  0.12113079    -0.11000
C1324       C  0.01944459  0.91563229  0.10512365    -0.12500
C1325       C  0.33639497  0.71563216  0.27614400    -0.11000
C1326       C  0.33305228  0.72655546  0.26011072    -0.12500
C1327       C  0.27723552  0.74938203  0.20709214    -0.11000
C1328       C  0.25612907  0.75248789  0.20135790    -0.12500
C1329       C  0.46706894  0.84142712  0.18002116    -0.16200
C1330       C  0.44177704  0.82595636  0.18708423     0.07900
C1331       C  0.41178114  0.80770913  0.19462729     0.09700
C1332       C  0.38657866  0.79176719  0.20169621    -0.17000
C1333       C  0.16904455  0.88130982  0.60906899    -0.11000
C1334       C  0.16543526  0.89143376  0.59272319    -0.12500
C1335       C  0.10901764  0.91367931  0.53978487    -0.11000
C1336       C  0.08826974  0.91763755  0.53445514    -0.12500
C1337       C  0.35454841  0.56888990  0.45378930    -0.11000
C1338       C  0.35197286  0.58102481  0.43813097    -0.12500
C1339       C  0.42843850  0.54112420  0.51419479    -0.11000
C1340       C  0.40709859  0.54333149  0.50772314    -0.12500
C1341       C  0.29711597  0.49871671  0.50905929    -0.16200
C1342       C  0.27169398  0.98250133  0.51570209     0.07900
C1343       C  0.24173722  0.96428578  0.52334104     0.09700
C1344       C  0.21673550  0.94916901  0.53093831    -0.17000
C1345       C  0.11153356  0.91636686  0.67577267    -0.11000
C1346       C  0.11388681  0.89488568  0.68164667    -0.12500
C1347       C  0.08929983  0.97244223  0.62271822    -0.11000
C1348       C  0.07782911  0.97553427  0.60688991    -0.12500
C1349       C  0.24113843  0.71460495  0.70816809    -0.11000
C1350       C  0.23760744  0.73537054  0.70219336    -0.12500
C1351       C  0.26556131  0.66115944  0.76214190    -0.11000
C1352       C  0.27641010  0.65798707  0.77826581    -0.12500
C1353       C  0.15741471  0.52626456  0.67981018    -0.16200
C1354       C  0.17356923  0.55148666  0.68677317     0.07900
C1355       C  0.19154289  0.58146462  0.69440151     0.09700
C1356       C  0.20638677  0.60668310  0.70171030    -0.17000
C1357       C  0.40396474  0.56834559  0.36889833    -0.11000
C1358       C  0.40713629  0.54745553  0.37509369    -0.12500
C1359       C  0.43150229  0.99395007  0.42912017    -0.11000
C1360       C  0.44269343  0.99083191  0.44509811    -0.12500
C1361       C  0.27740928  0.74920198  0.34266009    -0.11000
C1362       C  0.28044785  0.72809398  0.34847584    -0.12500
C1363       C  0.25488900  0.80515055  0.28954195    -0.11000
C1364       C  0.24402538  0.80864167  0.27353344    -0.12500
C1365       C  0.31982267  0.85847147  0.34808405    -0.16200
C1366       C  0.33566090  0.88362548  0.35522940     0.07900
C1367       C  0.35372648  0.91355616  0.36288145     0.09700
C1368       C  0.36902647  0.93879531  0.37003965    -0.17000
C1369       C  0.43571524  0.97431093  0.10535500    -0.11000
C1370       C  0.42153733  0.97137486  0.12136476    -0.12500
C1371       C  0.31856618  0.89723545  0.18080364    -0.11000
C1372       C  0.34272712  0.91819015  0.17479310    -0.12500
C1373       C  0.41815977  0.65690339  0.27632176    -0.11000
C1374       C  0.43265083  0.66043724  0.26036837    -0.12500
C1375       C  0.03530057  0.73762301  0.20141000    -0.11000
C1376       C  0.01118965  0.71649842  0.20727177    -0.12500
C1377       C  0.41387374  0.52675449  0.18019372    -0.16200
C1378       C  0.42380483  0.55200912  0.18733026     0.07900
C1379       C  0.43561633  0.58195490  0.19495063     0.09700
C1380       C  0.44484278  0.60711897  0.20205630    -0.17000
C1381       C  0.48598564  0.71257829  0.34833428    -0.11000
C1382       C  0.01015187  0.71567628  0.34248765    -0.12500
C1383       C  0.08851019  0.73805425  0.28925107    -0.11000
C1384       C  0.10292191  0.74910224  0.27327792    -0.12500
C1385       C  0.08588698  0.54941920  0.44488453    -0.11000
C1386       C  0.10032129  0.56094213  0.42900446    -0.12500
C1387       C  0.20279754  0.58920866  0.36910026    -0.11000
C1388       C  0.17881866  0.58623772  0.37531788    -0.12500
C1389       C  0.07811080  0.67462374  0.34853910    -0.16200
C1390       C  0.08760108  0.65906721  0.35593010     0.07900
C1391       C  0.09946538  0.64108859  0.36377207     0.09700
C1392       C  0.10924685  0.62564726  0.37092699    -0.17000
C1393       C  0.34553468  0.91845854  0.04119105    -0.11000
C1394       C  0.36982765  0.92195985  0.03523644    -0.12500
C1395       C  0.26739279  0.89388264  0.09499829    -0.11000
C1396       C  0.25325775  0.88297331  0.11107523    -0.12500
C1397       C  0.25519761  0.57098043  0.95650162    -0.11000
C1398       C  0.26944120  0.58209846  0.94051398    -0.12500
C1399       C  0.15329869  0.54635359  0.01541721    -0.11000
C1400       C  0.17737574  0.54907280  0.00979290    -0.12500
C1401       C  0.27379699  0.95505962  0.03541577    -0.16200
C1402       C  0.26369541  0.97029540  0.02840548     0.07900
C1403       C  0.25175237  0.98845622  0.02109065     0.09700
C1404       C  0.24254297  0.50454989  0.01426444    -0.17000
C1405       C  0.26456030  0.82632492  0.59336307    -0.11000
C1406       C  0.25048444  0.82277906  0.60951933    -0.12500
C1407       C  0.36775490  0.90380091  0.53511340    -0.11000
C1408       C  0.34326001  0.88282846  0.54054341    -0.12500
C1409       C  0.17488769  0.58435748  0.50798501    -0.11000
C1410       C  0.15105626  0.56316971  0.51422578    -0.12500
C1411       C  0.26796160  0.64049983  0.43858847    -0.11000
C1412       C  0.25341036  0.63762998  0.45439453    -0.12500
C1413       C  0.24153640  0.69404599  0.51077178    -0.16200
C1414       C  0.25092589  0.71944325  0.51750811     0.07900
C1415       C  0.26282995  0.74944749  0.52507063     0.09700
C1416       C  0.27269813  0.77453275  0.53250838    -0.17000
C1417       C  0.43319564  0.72746571  0.76230805    -0.11000
C1418       C  0.41885058  0.71605514  0.77822899    -0.12500
C1419       C  0.01172247  0.75258822  0.70872770    -0.11000
C1420       C  0.03571647  0.75549975  0.70259414    -0.12500
C1421       C  0.31912460  0.87974232  0.68185146    -0.11000
C1422       C  0.34351250  0.88308808  0.67632050    -0.12500
C1423       C  0.42266441  0.90571841  0.62374535    -0.11000
C1424       C  0.43687066  0.91630871  0.60764436    -0.12500
C1425       C  0.41177884  0.84244611  0.68313835    -0.16200
C1426       C  0.42126709  0.82676148  0.69030325     0.07900
C1427       C  0.43316442  0.80861717  0.69775773     0.09700
C1428       C  0.44288408  0.79296599  0.70462212    -0.17000
C1429       C  0.20088404  0.57080330  0.86791203    -0.11000
C1430       C  0.17657736  0.54963147  0.87337818    -0.12500
C1431       C  0.09812665  0.99339258  0.92624131    -0.11000
C1432       C  0.08411500  0.99012904  0.94237280    -0.12500
C1433       C  0.00826946  0.75074476  0.84157748    -0.11000
C1434       C  0.48422351  0.72973953  0.84769110    -0.12500
C1435       C  0.10097008  0.80706454  0.77193981    -0.11000
C1436       C  0.08661660  0.80405187  0.78787146    -0.12500
C1437       C  0.07853951  0.85958551  0.84637957    -0.16200
C1438       C  0.08856879  0.88496830  0.85329762     0.07900
C1439       C  0.10059535  0.91506663  0.86065472     0.09700
C1440       C  0.10995650  0.94031606  0.86763822    -0.17000
C1441       C  0.27693904  0.57516150  0.27625612    -0.11000
C1442       C  0.26586227  0.56073372  0.26030806    -0.12500
C1443       C  0.24089851  0.95845083  0.20128824    -0.11000
C1444       C  0.24366361  0.98248654  0.20710641    -0.12500
C1445       C  0.08964593  0.57313906  0.12097655    -0.11000
C1446       C  0.07850771  0.55884300  0.10499089    -0.12500
C1447       C  0.11358760  0.65098086  0.17490965    -0.11000
C1448       C  0.11681143  0.67513383  0.18093947    -0.12500
C1449       C  0.19982477  0.54820641  0.20230112    -0.16200
C1450       C  0.18396820  0.55757932  0.19528598     0.07900
C1451       C  0.16607364  0.56969294  0.18773400     0.09700
C1452       C  0.15100097  0.57988106  0.18056573    -0.17000
C1453       C  0.24345262  0.98280533  0.34267995    -0.11000
C1454       C  0.26472578  0.50692115  0.34838008    -0.12500
C1455       C  0.18472754  0.89015205  0.27356918    -0.11000
C1456       C  0.18782078  0.90440343  0.28956749    -0.12500
C1457       C  0.99816649  0.89292497  0.42841341    -0.11000
C1458       C  0.00118780  0.90689933  0.44454784    -0.12500
C1459       C  0.44497706  0.81469535  0.37460050    -0.11000
C1460       C  0.42416074  0.79038726  0.36867381    -0.12500
C1461       C  0.05339337  0.88643510  0.36902131    -0.16200
C1462       C  0.07866368  0.89630810  0.36190314     0.07900
C1463       C  0.10864349  0.90790848  0.35436406     0.09700
C1464       C  0.13385484  0.91692445  0.34738469    -0.17000
C1465       C  0.09169634  0.62400851  0.03537099    -0.11000
C1466       C  0.11273063  0.64803986  0.04147083    -0.12500
C1467       C  0.16900159  0.74077964  0.11104814    -0.11000
C1468       C  0.16603509  0.72643591  0.09512084    -0.12500
C1469       C  0.35482300  0.73700302  0.95694108    -0.11000
C1470       C  0.35107273  0.72280787  0.94081368    -0.12500
C1471       C  0.41146491  0.81604631  0.00956993    -0.11000
C1472       C  0.43245763  0.84051658  0.01501950    -0.12500
C1473       C  0.30299594  0.74623238  0.01729658    -0.16200
C1474       C  0.27780080  0.73658750  0.02445946     0.07900
C1475       C  0.24767662  0.72482815  0.03168528     0.09700
C1476       C  0.22221299  0.71545057  0.03825860    -0.17000
C1477       C  0.09987035  0.72771928  0.59324640    -0.11000
C1478       C  0.11021869  0.74165510  0.60948992    -0.12500
C1479       C  0.07422348  0.62478600  0.53468754    -0.11000
C1480       C  0.07785472  0.64931306  0.54015097    -0.12500
C1481       C  0.45029149  0.84136017  0.51456109    -0.11000
C1482       C  0.44766041  0.81755753  0.50825728    -0.12500
C1483       C  0.41089208  0.72463821  0.43870446    -0.11000
C1484       C  0.42253323  0.73919106  0.45451737    -0.12500
C1485       C  0.49135092  0.75147525  0.51057013    -0.16200
C1486       C  0.00750288  0.74218927  0.51717432     0.07900
C1487       C  0.02570975  0.73035421  0.52461672     0.09700
C1488       C  0.04092211  0.72046965  0.53202214    -0.17000
C1489       C  0.40682523  0.79125574  0.86856033    -0.11000
C1490       C  0.40972106  0.81539687  0.87426493    -0.12500
C1491       C  0.43286218  0.89458180  0.92690149    -0.11000
C1492       C  0.44410226  0.90911524  0.94279139    -0.12500
C1493       C  0.25466158  0.90528440  0.78816882    -0.11000
C1494       C  0.24359889  0.89118240  0.77209985    -0.12500
C1495       C  0.28289723  0.50796978  0.84772222    -0.11000
C1496       C  0.27961415  0.98375881  0.84176146    -0.12500
C1497       C  0.31613784  0.91192337  0.84771536    -0.16200
C1498       C  0.33137297  0.90188987  0.85486183     0.07900
C1499       C  0.34958474  0.89009187  0.86237753     0.09700
C1500       C  0.36572549  0.88100536  0.86933592    -0.17000
C1501       C  0.09844321  0.67313106  0.68217189    -0.11000
C1502       C  0.07745865  0.64871775  0.67663043    -0.12500
C1503       C  0.02124947  0.57027766  0.62357259    -0.11000
C1504       C  0.01783302  0.55623744  0.60740792    -0.12500
C1505       C  0.25767103  0.95654826  0.70228455    -0.11000
C1506       C  0.27876635  0.98048365  0.70848735    -0.12500
C1507       C  0.33451860  0.57323144  0.77816667    -0.11000
C1508       C  0.33165945  0.55881601  0.76228871    -0.12500
C1509       C  0.46868988  0.57975963  0.68352266    -0.16200
C1510       C  0.44356203  0.57022459  0.69080630     0.07900
C1511       C  0.41354789  0.55844085  0.69832250     0.09700
C1512       C  0.38815148  0.54886149  0.70512274    -0.17000
C1513       C  0.80600394  0.00658320  0.71659325     0.82500
N1514       N  0.83314624  0.01588199  0.70672222    -0.75800
C1515       C  0.85923798  0.03918498  0.71492136     0.85000
N1516       N  0.85831832  0.05300144  0.73298938    -0.75700
C1517       C  0.83146240  0.04380100  0.74298132     0.85100
N1518       N  0.80515995  0.02044101  0.73487938    -0.77400
C1519       C  0.54990277  0.12226705  0.66934921     0.82500
N1520       N  0.54950932  0.10852776  0.65070392    -0.75800
C1521       C  0.52272529  0.08507251  0.64327616     0.85000
N1522       N  0.49660436  0.07569469  0.65429452    -0.75700
C1523       C  0.99692145  0.08940002  0.67273567     0.85100
N1524       N  0.52349711  0.11280738  0.68024981    -0.77400
C1525       C  0.77998710  0.45705595  0.83411185     0.82500
N1526       N  0.76624823  0.44374304  0.81545741    -0.75800
C1527       C  0.76847916  0.41973572  0.80784568     0.85000
N1528       N  0.78447560  0.40933810  0.81870109    -0.75700
C1529       C  0.79824080  0.42259203  0.83715112     0.85100
N1530       N  0.79618713  0.44656425  0.84484951    -0.77400
C1531       C  0.90789026  0.34135178  0.88179674     0.82500
N1532       N  0.88935861  0.34951961  0.87164422    -0.75800
C1533       C  0.88561824  0.37244132  0.87945168     0.85000
N1534       N  0.90008476  0.38699239  0.89741360    -0.75700
C1535       C  0.91842944  0.37891907  0.90767708     0.85100
N1536       N  0.92231054  0.35593216  0.89997464    -0.77400
C1537       C  0.94929289  0.29179758  0.50000942     0.82500
N1538       N  0.96803111  0.28331474  0.50949460    -0.75800
C1539       C  0.97134883  0.26042772  0.50111255     0.85000
N1540       N  0.95622585  0.24619471  0.48325572    -0.75700
C1541       C  0.93767028  0.25457460  0.47364769     0.85100
N1542       N  0.93420408  0.27753209  0.48192433    -0.77400
C1543       C  0.57722652  0.17609515  0.54726333     0.82500
N1544       N  0.58998053  0.18943173  0.56613676    -0.75800
C1545       C  0.58712241  0.21326971  0.57333976     0.85000
N1546       N  0.57143970  0.22343323  0.56186409    -0.75700
C1547       C  0.55865251  0.21014907  0.54319361     0.85100
N1548       N  0.56133285  0.18635117  0.53590593    -0.77400
C1549       C  0.88392699  0.28938351  0.00249633     0.82500
N1550       N  0.88335874  0.27559526  0.98383154    -0.75800
C1551       C  0.85657046  0.25186386  0.97665130     0.85000
N1552       N  0.83063720  0.24226597  0.98792096    -0.75700
C1553       C  0.83112251  0.25600728  0.00637064     0.85100
N1554       N  0.85768399  0.27969741  0.01365033    -0.77400
C1555       C  0.64002338  0.17412661  0.04948507     0.82500
N1556       N  0.63928535  0.18816223  0.06770842    -0.75800
C1557       C  0.66568461  0.21136982  0.07581371     0.85000
N1558       N  0.69251989  0.22021598  0.06590525    -0.75700
C1559       C  0.69332284  0.20621315  0.04790587     0.85100
N1560       N  0.66714484  0.18306544  0.03969595    -0.77400
C1561       C  0.97197530  0.34143643  0.38230408     0.82500
N1562       N  0.97142901  0.35466982  0.40096907    -0.75800
C1563       C  0.99763529  0.37861716  0.40868506     0.85000
N1564       N  0.52411949  0.38901617  0.39792734    -0.75700
C1565       C  0.52474621  0.37583599  0.37946870     0.85100
N1566       N  0.99875324  0.35193142  0.37167010    -0.77400
C1567       C  0.71572617  0.45689867  0.33504806     0.82500
N1568       N  0.68897407  0.44850531  0.34520558    -0.75800
C1569       C  0.66236614  0.42563543  0.33728428     0.85000
N1570       N  0.66239123  0.41137475  0.31919628    -0.75700
C1571       C  0.68887615  0.41970001  0.30892843     0.85100
N1572       N  0.71567687  0.44262543  0.31675054    -0.77400
C1573       C  0.61428846  0.12451505  0.16712984     0.82500
N1574       N  0.60076622  0.11133632  0.14839120    -0.75800
C1575       C  0.60341311  0.08762853  0.14064678     0.85000
N1576       N  0.61958006  0.07739493  0.15145407    -0.75700
C1577       C  0.63311474  0.09051534  0.16998279     0.85100
N1578       N  0.63065342  0.11418042  0.17782218    -0.77400
C1579       C  0.74165009  0.00825615  0.21480126     0.82500
N1580       N  0.72330025  0.01660003  0.20459225    -0.75800
C1581       C  0.71942280  0.03937531  0.21251363     0.85000
N1582       N  0.73356344  0.05360606  0.23063446    -0.75700
C1583       C  0.75170955  0.04534164  0.24095779     0.85100
N1584       N  0.75574234  0.02250416  0.23314473    -0.77400
C1585       C  0.53464104  0.27791044  0.83369751     0.82500
N1586       N  0.54817477  0.27730016  0.81519175    -0.75800
C1587       C  0.57185987  0.30359152  0.80735769     0.85000
N1588       N  0.58171635  0.33019493  0.81783999    -0.75700
C1589       C  0.56823783  0.33087714  0.83613252     0.85100
N1590       N  0.54459502  0.30481057  0.84406371    -0.77400
C1591       C  0.65046794  0.02190995  0.88073953     0.82500
N1592       N  0.63628010  0.02161050  0.89913352    -0.75800
C1593       C  0.61322408  0.99474404  0.90674379     0.85000
N1594       N  0.60469195  0.46844422  0.89618083    -0.75700
C1595       C  0.61886806  0.46867111  0.87799643     0.85100
N1596       N  0.64188152  0.49533799  0.87027868    -0.77400
C1597       C  0.86994705  0.38188375  0.66911730     0.82500
N1598       N  0.88407206  0.39556938  0.65064551    -0.75800
C1599       C  0.90754651  0.39220258  0.64330656     0.85000
N1600       N  0.91655062  0.37509402  0.65422284    -0.75700
C1601       C  0.90246004  0.36136198  0.67247619     0.85100
N1602       N  0.87903759  0.36456214  0.67991517    -0.77400
C1603       C  0.98550700  0.25365006  0.71666889     0.82500
N1604       N  0.97610052  0.27125072  0.70658896    -0.75800
C1605       C  0.95267858  0.27397492  0.71462555     0.85000
N1606       N  0.93886494  0.25944001  0.73274332    -0.75700
C1607       C  0.94817397  0.24203274  0.74294112     0.85100
N1608       N  0.97164137  0.23913920  0.73499963    -0.77400
C1609       C  0.70073446  0.11174570  0.49982961     0.82500
N1610       N  0.71496463  0.11096329  0.48171893    -0.75800
C1611       C  0.73805314  0.13737618  0.47354098     0.85000
N1612       N  0.74660980  0.16427461  0.48327963    -0.75700
C1613       C  0.73240793  0.16512774  0.50116773     0.85100
N1614       N  0.70938340  0.13892391  0.50944769    -0.77400
C1615       C  0.81655728  0.35533216  0.54762258     0.82500
N1616       N  0.80658313  0.32913666  0.53635271    -0.75800
C1617       C  0.78285047  0.30260283  0.54363445     0.85000
N1618       N  0.76934963  0.30210819  0.56220386    -0.75700
C1619       C  0.77923776  0.32800451  0.57358216     0.85100
N1620       N  0.80300145  0.35474995  0.56639134    -0.77400
C1621       C  0.70307690  0.04696906  0.00211994     0.82500
N1622       N  0.71127707  0.02843925  0.01223411    -0.75800
C1623       C  0.73390280  0.02439787  0.00420576     0.85000
N1624       N  0.74809199  0.03853458  0.98607468    -0.75700
C1625       C  0.73994099  0.05684717  0.97586400     0.85100
N1626       N  0.71727468  0.06104198  0.98377945    -0.77400
C1627       C  0.81883028  0.41878199  0.04887358     0.82500
N1628       N  0.80564975  0.40517554  0.06759016    -0.75800
C1629       C  0.78173515  0.40752387  0.07526604     0.85000
N1630       N  0.77132158  0.42350554  0.06442410    -0.75700
C1631       C  0.78444747  0.43713263  0.04592250     0.85100
N1632       N  0.80831784  0.43496984  0.03815218    -0.77400
C1633       C  0.65256715  0.08718561  0.38330277     0.82500
N1634       N  0.63886719  0.07281235  0.40171148    -0.75800
C1635       C  0.61527309  0.07552735  0.40962004     0.85000
N1636       N  0.60567637  0.09261760  0.39930158    -0.75700
C1637       C  0.61933701  0.10701463  0.38110756     0.85100
N1638       N  0.64286782  0.10445569  0.37310968    -0.77400
C1639       C  0.53627265  0.21417324  0.33492747     0.82500
N1640       N  0.55013059  0.22778316  0.31636891    -0.75800
C1641       C  0.57338532  0.22424200  0.30877163     0.85000
N1642       N  0.58245316  0.20705811  0.31954318    -0.75700
C1643       C  0.56861641  0.19340989  0.33788760     0.85100
N1644       N  0.54543260  0.19680234  0.34557376    -0.77400
C1645       C  0.98525054  0.18878813  0.21489531     0.82500
N1646       N  0.97669782  0.16213823  0.20456015    -0.75800
C1647       C  0.95374797  0.13551031  0.21236312     0.85000
N1648       N  0.93954727  0.13539167  0.23050752    -0.75700
C1649       C  0.94801185  0.16175483  0.24097047     0.85100
N1650       N  0.97103623  0.18861177  0.23326833    -0.77400
C1651       C  0.86934715  0.44527534  0.16706857     0.82500
N1652       N  0.87952946  0.47210413  0.17757370    -0.75800
C1653       C  0.90343336  0.49811287  0.16980448     0.85000
N1654       N  0.91694735  0.49745169  0.15151734    -0.75700
C1655       C  0.90686081  0.47091126  0.14089410     0.85100
N1656       N  0.88291361  0.44468562  0.14857500    -0.77400
C1657       C  0.77904179  0.27686372  0.33507740     0.82500
N1658       N  0.79694717  0.30349881  0.34548470    -0.75800
C1659       C  0.80050460  0.33009176  0.33771619     0.85000
N1660       N  0.78650593  0.33019660  0.31953161    -0.75700
C1661       C  0.76880207  0.30384871  0.30899783     0.85100
N1662       N  0.76508565  0.27702698  0.31666630    -0.77400
C1663       C  0.90637197  0.02032241  0.38301505     0.82500
N1664       N  0.88970628  0.49349485  0.37252065    -0.75800
C1665       C  0.88721373  0.46741101  0.38044933     0.85000
N1666       N  0.90103345  0.46799123  0.39888075    -0.75700
C1667       C  0.91750982  0.99452365  0.40950537     0.85100
N1668       N  0.92017965  0.02084454  0.40166452    -0.77400
C1669       C  0.74102420  0.18766479  0.71582336     0.82500
N1670       N  0.72550359  0.16109235  0.70484603    -0.75800
C1671       C  0.72363325  0.13514570  0.71252118     0.85000
N1672       N  0.73688437  0.13560100  0.73118713    -0.75700
C1673       C  0.75219723  0.16186788  0.74228495     0.85100
N1674       N  0.75425927  0.18804077  0.73469580    -0.77400
C1675       C  0.61401496  0.44429228  0.66796293     0.82500
N1676       N  0.63303341  0.47106230  0.67787704    -0.75800
C1677       C  0.63724793  0.49777770  0.66983102     0.85000
N1678       N  0.62273641  0.49783391  0.65188731    -0.75700
C1679       C  0.60391783  0.47132909  0.64186479     0.85100
N1680       N  0.59956817  0.44441622  0.64980239    -0.77400
C1681       C  0.87970781  0.04140146  0.49920622     0.82500
N1682       N  0.88077672  0.05678958  0.48123359    -0.75800
C1683       C  0.85444501  0.05324280  0.47274014     0.85000
N1684       N  0.82733722  0.03432807  0.48204108    -0.75700
C1685       C  0.82620096  0.01889997  0.49979607     0.85100
N1686       N  0.85233194  0.02230729  0.50838746    -0.77400
C1687       C  0.63631209  0.41390334  0.54672659     0.82500
N1688       N  0.66233774  0.42934135  0.53516624    -0.75800
C1689       C  0.68876730  0.43173645  0.54229447     0.85000
N1690       N  0.68934704  0.41912725  0.56102503    -0.75700
C1691       C  0.66362631  0.40389433  0.57270982     0.85100
N1692       N  0.63698421  0.40133320  0.56565747    -0.77400
C1693       C  0.80489306  0.25093220  0.21462571     0.82500
N1694       N  0.83155604  0.26886983  0.20424798    -0.75800
C1695       C  0.85814239  0.27237041  0.21201163     0.85000
N1696       N  0.85819980  0.25828490  0.23016822    -0.75700
C1697       C  0.83182244  0.24054417  0.24066695     0.85100
N1698       N  0.80502357  0.23689237  0.23299905    -0.77400
C1699       C  0.54868072  0.37899693  0.16709504     0.82500
N1700       N  0.52184018  0.36224150  0.17757121    -0.75800
C1701       C  0.99574040  0.35979851  0.16968331     0.85000
N1702       N  0.49633584  0.37375484  0.15130942    -0.75700
C1703       C  0.52288670  0.39031411  0.14071510     0.85100
N1704       N  0.54919501  0.39292159  0.14851424    -0.77400
C1705       C  0.94593870  0.11025390  0.00189177     0.82500
N1706       N  0.96468796  0.13709477  0.01181397    -0.75800
C1707       C  0.96860910  0.16368670  0.00375525     0.85000
N1708       N  0.95410407  0.16356343  0.98576408    -0.75700
C1709       C  0.93553582  0.13699908  0.97571958     0.85100
N1710       N  0.93147887  0.11018996  0.98367606    -0.77400
C1711       C  0.57417903  0.35401478  0.04884721     0.82500
N1712       N  0.55822217  0.32733890  0.03804400    -0.75800
C1713       C  0.55633404  0.30138129  0.04571851     0.85000
N1714       N  0.57001504  0.30193610  0.06421601    -0.75700
C1715       C  0.58577392  0.32831356  0.07514151     0.85100
N1716       N  0.58783968  0.35448700  0.06754821    -0.77400
C1717       C  0.71483379  0.21197057  0.83395950     0.82500
N1718       N  0.71552671  0.22607753  0.81541967    -0.75800
C1719       C  0.68924973  0.22340064  0.80748659     0.85000
N1720       N  0.66259247  0.20661726  0.81790206    -0.75700
C1721       C  0.66183904  0.19249234  0.83622062     0.85100
N1722       N  0.68788131  0.19499058  0.84424887    -0.77400
C1723       C  0.97115269  0.08460166  0.88171390     0.82500
N1724       N  0.99762306  0.10233841  0.87107992    -0.75800
C1725       C  0.52435456  0.10609364  0.87873692     0.85000
N1726       N  0.52475785  0.09246033  0.89702269    -0.75700
C1727       C  0.99857797  0.07492980  0.90777354     0.85100
N1728       N  0.97162120  0.07100714  0.90021900    -0.77400
O1729       O  0.86376682  0.10792972  0.80479951    -0.77800
O1730       O  0.74684255  0.11380304  0.87726543    -0.79400
O1731       O  0.78384930  0.05345566  0.83981379    -0.76400
O1732       O  0.78172875  0.12859610  0.80485667    -0.74800
O1733       O  0.81329334  0.18059138  0.80407924    -0.76600
O1734       O  0.80949331  0.05123941  0.86906359    -0.77500
O1735       O  0.74475660  0.08686616  0.84749607    -0.78800
O1736       O  0.81179522  0.08768564  0.80381614    -0.79100
Eu1737     Eu  0.79743713  0.10698315  0.83436934     2.39200
O1738       O  0.80141613  0.15252235  0.84670833    -0.86600
O1739       O  0.83973910  0.10354298  0.84651505    -0.90200
C1740       C  0.83696037  0.09064005  0.79672395     1.04500
C1741       C  0.73245014  0.09232316  0.86359364     1.04300
C1742       C  0.79196151  0.03916489  0.85282636     1.04200
C1743       C  0.79117564  0.15544605  0.79689173     1.02100
H1744       H  0.77994318  0.08833932  0.87688048     0.31800
O1745       O  0.79783455  0.10629272  0.87164092    -0.99000
H1746       H  0.84327518  0.14909754  0.80695321     0.31900
O1747       O  0.84329150  0.14906198  0.82224718    -1.01500
O1748       O  0.82171046  0.18844680  0.91395430    -0.78800
O1749       O  0.93882696  0.18514008  0.83980774    -0.78300
O1750       O  0.80379780  0.08752942  0.91365303    -0.76700
O1751       O  0.80722464  0.20848156  0.84015382    -0.80100
O1752       O  0.88425378  0.21060714  0.80493307    -0.77900
O1753       O  0.87860989  0.08786162  0.87734341    -0.76600
O1754       O  0.90464228  0.17057225  0.91373137    -0.78100
O1755       O  0.90437529  0.24537693  0.87748740    -0.80000
O1756       O  0.87369986  0.11846896  0.91433570    -0.76800
O1757       O  0.87940577  0.24755356  0.84783255    -0.79500
O1758       O  0.78255683  0.11839551  0.91445624    -0.75200
O1759       O  0.90574071  0.11287983  0.84768925    -0.75200
O1760       O  0.90456020  0.17894097  0.80387325    -0.74900
O1761       O  0.77945059  0.18290839  0.86945761    -0.78400
O1762       O  0.87383065  0.20965462  0.91449182    -0.77800
O1763       O  0.94102075  0.21290286  0.86912320    -0.76100
Eu1764     Eu  0.80076300  0.15198192  0.88383290     2.39800
Eu1765     Eu  0.88534006  0.14518425  0.83435951     2.39600
Eu1766     Eu  0.84024858  0.10337778  0.88363069     2.38400
Eu1767     Eu  0.84707726  0.19487385  0.83453022     2.39900
Eu1768     Eu  0.88889276  0.19145005  0.88374049     2.39800
O1769       O  0.88870573  0.19085800  0.84662663    -0.90500
O1770       O  0.84331036  0.14890990  0.89554245    -0.89400
C1771       C  0.84855055  0.20593387  0.92195097     1.04600
C1772       C  0.95309245  0.20751709  0.85284834     1.03400
C1773       C  0.78630620  0.09677345  0.92175169     1.02800
C1774       C  0.78489737  0.20043974  0.85322277     1.04800
C1775       C  0.90154278  0.20112192  0.79681575     1.03700
C1776       C  0.90030014  0.09516816  0.86382311     1.02500
C1777       C  0.89533999  0.14376004  0.92173808     1.02600
C1778       C  0.89711466  0.25980145  0.86396907     1.06400
H1779       H  0.90391596  0.14630931  0.87688436     0.32600
O1780       O  0.88596253  0.14620633  0.87161216    -1.02700
H1781       H  0.84595655  0.21218565  0.87709186     0.34600
O1782       O  0.84604060  0.19434455  0.87178135    -1.05200
O1783       O  0.94970888  0.44373153  0.96958461    -0.77800
O1784       O  0.57014534  0.44641388  0.04335343    -0.79400
O1785       O  0.55010292  0.46109758  0.96937988    -0.76400
O1786       O  0.97558245  0.38650402  0.00584427    -0.74800
O1787       O  0.94859986  0.38436321  0.03559018    -0.76600
O1788       O  0.57150161  0.51322859  0.96880561    -0.77500
O1789       O  0.54462390  0.41885966  0.01396231    -0.78800
O1790       O  0.98036885  0.42225814  0.96890267    -0.79100
Eu1791     Eu  0.51391977  0.44041428  0.99955774     2.39200
O1792       O  0.51441459  0.44090506  0.03667536    -0.86600
O1793       O  0.51100824  0.48304707  0.98784238    -0.90200
C1794       C  0.95884259  0.42611005  0.96153530     1.04500
C1795       C  0.56205798  0.42412435  0.03023363     1.04300
C1796       C  0.56756075  0.48786991  0.96132495     1.04200
C1797       C  0.95401566  0.37208385  0.01944514     1.02100
H1798       H  0.57426399  0.48546823  0.00636250     0.31800
O1799       O  0.55643006  0.48558585  0.01166511    -0.99000
H1800       H  0.95033467  0.41978754  0.00638815     0.31900
O1801       O  0.96829920  0.43762425  0.01167568    -1.01500
O1802       O  0.57278228  0.02389694  0.07844784    -0.78800
O1803       O  0.94979630  0.01824819  0.00632380    -0.78300
O1804       O  0.60752166  0.04392657  0.00624335    -0.76700
O1805       O  0.99030715  0.42115628  0.07844854    -0.80100
O1806       O  0.91538968  0.42324054  0.04332530    -0.77900
O1807       O  0.53292872  0.04457396  0.96978437    -0.76600
O1808       O  0.54726313  0.07853301  0.04340080    -0.78100
O1809       O  0.97031576  0.00354016  0.07868514    -0.80000
O1810       O  0.57502181  0.08070588  0.01408920    -0.76800
O1811       O  0.94973944  0.45152290  0.07949178    -0.79500
O1812       O  0.60947722  0.51880766  0.03588831    -0.75200
O1813       O  0.98077897  0.01389624  0.96923173    -0.75200
O1814       O  0.91326948  0.44899757  0.01411167    -0.74900
O1815       O  0.54229818  0.45272958  0.07945026    -0.78400
O1816       O  0.54132530  0.04444491  0.07940538    -0.77800
O1817       O  0.97495834  0.04538893  0.03594102    -0.76100
Eu1818     Eu  0.55677936  0.48648244  0.04895523     2.39800
Eu1819     Eu  0.96549836  0.48008141  0.99972944     2.39600
Eu1820     Eu  0.55365107  0.02850636  0.99968358     2.38400
Eu1821     Eu  0.96890806  0.43705402  0.04892475     2.39900
Eu1822     Eu  0.50738598  0.02503124  0.04903786     2.39800
O1823       O  0.96563804  0.47949843  0.03684981    -0.90500
O1824       O  0.55297913  0.02821840  0.03680161    -0.89400
C1825       C  0.56347389  0.04138561  0.08647319     1.04600
C1826       C  0.95708654  0.03987844  0.01989427     1.03400
C1827       C  0.62183242  0.03661979  0.01983266     1.02800
C1828       C  0.51708840  0.43057181  0.08652933     1.04800
C1829       C  0.90112129  0.43130735  0.03026646     1.03700
C1830       C  0.50611283  0.03548599  0.96184972     1.02500
C1831       C  0.56958109  0.09280923  0.03031608     1.02600
C1832       C  0.95291989  0.47672353  0.08669854     1.05200
H1833       H  0.50849972  0.04365366  0.00659517     0.32600
O1834       O  0.50841918  0.02568682  0.01180471    -1.02700
H1835       H  0.51105472  0.48284049  0.07645310     0.34600
O1836       O  0.51102418  0.48285322  0.06115846    -1.05200
O1837       O  0.90527581  0.18985470  0.41208323    -0.77800
O1838       O  0.78284022  0.18468446  0.33952239    -0.79400
O1839       O  0.87995801  0.24477614  0.37689499    -0.76400
O1840       O  0.80279065  0.16973331  0.41202289    -0.74800
O1841       O  0.78235149  0.11773867  0.41292800    -0.76600
O1842       O  0.90752261  0.24697113  0.34746947    -0.77500
O1843       O  0.80786430  0.21176932  0.36919980    -0.78800
O1844       O  0.87383985  0.21043252  0.41300990    -0.79100
Eu1845     Eu  0.84009781  0.19126565  0.38249567     2.39200
O1846       O  0.79838595  0.14575911  0.37024555    -0.86600
O1847       O  0.88575792  0.19453021  0.37028594    -0.90200
C1848       C  0.89590445  0.20727265  0.42014090     1.04500
C1849       C  0.79014823  0.20635218  0.35306608     1.04300
C1850       C  0.90215858  0.25908554  0.36372953     1.04200
C1851       C  0.78540245  0.14292467  0.42005561     1.02100
H1852       H  0.84123813  0.20982427  0.33995744     0.31800
O1853       O  0.84108175  0.19185165  0.34523665    -0.99000
H1854       H  0.84372376  0.14901413  0.40992662     0.31900
O1855       O  0.84374024  0.14908390  0.39463098    -1.01500
O1856       O  0.78240431  0.10969019  0.30307275    -0.78800
O1857       O  0.90308171  0.11286003  0.37682373    -0.78300
O1858       O  0.86550051  0.21032051  0.30301674    -0.76700
O1859       O  0.74815189  0.08991325  0.37692267    -0.80100
O1860       O  0.82291654  0.08716059  0.41173823    -0.77900
O1861       O  0.94015292  0.21020244  0.33950814    -0.76600
O1862       O  0.88342768  0.12757801  0.30301248    -0.78100
O1863       O  0.80819808  0.05272025  0.33937649    -0.80000
O1864       O  0.90475329  0.17970315  0.30249127    -0.76800
O1865       O  0.78110258  0.05066325  0.36904672    -0.79500
O1866       O  0.81336573  0.17960483  0.30240806    -0.75200
O1867       O  0.94226081  0.18502839  0.36907105    -0.75200
O1868       O  0.87492815  0.11860575  0.41274458    -0.74900
O1869       O  0.74600605  0.11552910  0.34763831    -0.78400
O1870       O  0.81323538  0.08840323  0.30233789    -0.77800
O1871       O  0.87745001  0.08511367  0.34751837    -0.76100
Eu1872     Eu  0.79821218  0.14622433  0.33312267     2.39800
Eu1873     Eu  0.88954064  0.15275942  0.38242356     2.39600
Eu1874     Eu  0.88628654  0.19470681  0.33314499     2.38400
Eu1875     Eu  0.80160001  0.10333557  0.38236675     2.39900
Eu1876     Eu  0.84672120  0.10660581  0.33300890     2.39800
O1877       O  0.84713424  0.10720240  0.37013063    -0.90500
O1878       O  0.84374023  0.14919760  0.32125167    -0.89400
C1879       C  0.79162634  0.09214711  0.29500562     1.04600
C1880       C  0.89496400  0.09050699  0.36376551     1.03400
C1881       C  0.83871526  0.20110678  0.29498349     1.02800
C1882       C  0.73390920  0.09806163  0.36390194     1.04800
C1883       C  0.84969048  0.09640046  0.41976075     1.03700
C1884       C  0.95453825  0.20283361  0.35297712     1.02500
C1885       C  0.90104810  0.15441473  0.29505995     1.02600
C1886       C  0.78652153  0.03836263  0.35292288     1.05200
H1887       H  0.90690615  0.15170061  0.33987560     0.32600
O1888       O  0.88906689  0.15181352  0.34516181    -1.02700
H1889       H  0.78306899  0.08599882  0.33982650     0.34600
O1890       O  0.80105016  0.10381564  0.34511173    -1.05200
O1891       O  0.71306793  0.41118283  0.71024211    -0.77800
O1892       O  0.71610116  0.29366372  0.63640341    -0.79400
O1893       O  0.77309641  0.37681206  0.67272077    -0.76400
O1894       O  0.69828837  0.37653929  0.63614237    -0.74800
O1895       O  0.64615967  0.34572164  0.63563929    -0.76600
O1896       O  0.77532446  0.35200386  0.70244964    -0.77500
O1897       O  0.73741598  0.34578071  0.63574348    -0.78800
O1898       O  0.74061157  0.41333399  0.68081322    -0.79100
Eu1899     Eu  0.71915104  0.36110999  0.66635973     2.39200
O1900       O  0.67656829  0.31548642  0.65468452    -0.86600
O1901       O  0.71864204  0.36106452  0.70349349    -0.90200
C1902       C  0.73535573  0.42543207  0.69713173     1.04500
C1903       C  0.73364425  0.32044026  0.62836073     1.04300
C1904       C  0.78756291  0.36971486  0.68631247     1.04200
C1905       C  0.67146710  0.36717796  0.62811054     1.02100
H1906       H  0.73995481  0.31827113  0.67320276     0.31800
O1907       O  0.72208968  0.31834575  0.67848126    -0.99000
H1908       H  0.67408365  0.37618972  0.67316929     0.31900
O1909       O  0.67393041  0.35823811  0.67848775    -1.01500
O1910       O  0.64153940  0.21910196  0.67298389    -0.78800
O1911       O  0.63569897  0.33626736  0.74530660    -0.78300
O1912       O  0.73641580  0.27973697  0.71019809    -0.76700
O1913       O  0.61529055  0.27595551  0.63642477    -0.80100
O1914       O  0.61581484  0.35116035  0.67281570    -0.77900
O1915       O  0.73830760  0.35666055  0.74536377    -0.76600
O1916       O  0.65632119  0.25416180  0.74540081    -0.78100
O1917       O  0.58113637  0.25626470  0.71041652    -0.80000
O1918       O  0.70832343  0.28575930  0.74621734    -0.76800
O1919       O  0.57889495  0.28183195  0.68112631    -0.79500
O1920       O  0.71068355  0.25182235  0.68097934    -0.75200
O1921       O  0.70667018  0.37699966  0.74631185    -0.75200
O1922       O  0.64085548  0.37826197  0.70248436    -0.74900
O1923       O  0.64614756  0.25469652  0.63583869    -0.78400
O1924       O  0.61442064  0.21704612  0.70263488    -0.77800
O1925       O  0.61539651  0.28429354  0.74633646    -0.76100
Eu1926     Eu  0.67967838  0.27301344  0.66651019     2.39800
Eu1927     Eu  0.67300344  0.35773560  0.71576635     2.39600
Eu1928     Eu  0.72264102  0.31949604  0.71574094     2.38400
Eu1929     Eu  0.63102834  0.31251582  0.66649117     2.39900
Eu1930     Eu  0.63466110  0.26978547  0.71584880     2.39800
O1931       O  0.63132475  0.31212008  0.70362122    -0.90500
O1932       O  0.68025490  0.27375917  0.70362919    -0.89400
C1933       C  0.61994246  0.20471625  0.68656843     1.04600
C1934       C  0.61837345  0.30948085  0.75339279     1.03400
C1935       C  0.72832946  0.25735829  0.69716401     1.02800
C1936       C  0.62458488  0.25843919  0.62840157     1.04800
C1937       C  0.62320564  0.37289016  0.68633004     1.03700
C1938       C  0.72880791  0.37396093  0.75344153     1.02500
C1939       C  0.68317373  0.26362968  0.75338731     1.02600
C1940       C  0.56684367  0.26437635  0.69740161     1.05200
H1941       H  0.67680476  0.31570150  0.74325530     0.32600
O1942       O  0.67678223  0.31567860  0.72795978    -1.02700
H1943       H  0.61602594  0.25225558  0.67334053     0.34600
O1944       O  0.63396781  0.27015296  0.67858583    -1.05200
O1945       O  0.69821620  0.27535793  0.13774760    -0.77800
O1946       O  0.58114790  0.28100645  0.21030128    -0.79400
O1947       O  0.61797031  0.22064693  0.17288592    -0.76400
O1948       O  0.61597346  0.29557196  0.13768624    -0.74800
O1949       O  0.64756306  0.34755854  0.13674739    -0.76600
O1950       O  0.64351684  0.21846937  0.20220818    -0.77500
O1951       O  0.57900020  0.25383533  0.18065284    -0.78800
O1952       O  0.64621686  0.25494431  0.13680373    -0.79100
Eu1953     Eu  0.63170232  0.27416041  0.16731247     2.39200
O1954       O  0.63559957  0.31972098  0.17951892    -0.86600
O1955       O  0.67405778  0.27081049  0.17951891    -0.90200
C1956       C  0.67141628  0.25803625  0.12967258     1.04500
C1957       C  0.56674297  0.25932427  0.19678088     1.04300
C1958       C  0.62597505  0.20636204  0.18597778     1.04200
C1959       C  0.62543761  0.32236286  0.12961120     1.02100
H1960       H  0.61431189  0.25566946  0.20981934     0.31800
O1961       O  0.63217364  0.27362232  0.20455699    -0.99000
H1962       H  0.67761373  0.31621087  0.13987044     0.31900
O1963       O  0.67759424  0.31621329  0.15516645    -1.01500
O1964       O  0.65572920  0.35573519  0.24671537    -0.78800
O1965       O  0.77314812  0.35264212  0.17285969    -0.78300
O1966       O  0.63773022  0.25472904  0.24659636    -0.76700
O1967       O  0.64130454  0.37555302  0.17285615    -0.80100
O1968       O  0.71857582  0.37766534  0.13771550    -0.77900
O1969       O  0.71276841  0.25504185  0.21029271    -0.76600
O1970       O  0.73878823  0.33789333  0.24673194    -0.78100
O1971       O  0.73850759  0.41265508  0.21028111    -0.80000
O1972       O  0.70787180  0.28578067  0.24734469    -0.76800
O1973       O  0.71362672  0.41475025  0.18053863    -0.79500
O1974       O  0.61646202  0.28556930  0.24724007    -0.75200
O1975       O  0.74002974  0.28013293  0.18069753    -0.75200
O1976       O  0.73904839  0.34613533  0.13688406    -0.74900
O1977       O  0.61367234  0.35012718  0.20224270    -0.78400
O1978       O  0.70785167  0.37704420  0.24740621    -0.77800
O1979       O  0.77529784  0.38035297  0.20219189    -0.76100
Eu1980     Eu  0.63502270  0.31927420  0.21665772     2.39800
Eu1981     Eu  0.71968973  0.31248483  0.16738532     2.39600
Eu1982     Eu  0.67447153  0.27066989  0.21664962     2.38400
Eu1983     Eu  0.68128858  0.36204048  0.16728971     2.39900
Eu1984     Eu  0.72309390  0.35879295  0.21670323     2.39800
O1985       O  0.72290415  0.35810887  0.17957462    -0.90500
O1986       O  0.67753004  0.31624024  0.22853023    -0.89400
C1987       C  0.68249379  0.37327071  0.25477327     1.04600
C1988       C  0.78739848  0.37501249  0.18591347     1.03400
C1989       C  0.62009814  0.26389783  0.25458782     1.02800
C1990       C  0.61902025  0.36756068  0.18596775     1.04800
C1991       C  0.73597011  0.36821885  0.12971067     1.03700
C1992       C  0.73448285  0.26232999  0.19678969     1.02500
C1993       C  0.72948549  0.31108031  0.25474528     1.02600
C1994       C  0.73127818  0.42702986  0.19670005     1.05200
H1995       H  0.73815775  0.31360879  0.20991962     0.32600
O1996       O  0.72021942  0.31352354  0.20463657    -1.02700
H1997       H  0.68014668  0.37945459  0.20983804     0.34600
O1998       O  0.68027279  0.36161703  0.20456453    -1.05200
O1999       O  0.98860355  0.02192435  0.58051487    -0.77800
O2000       O  0.60570048  0.01843828  0.50644568    -0.79400
O2001       O  0.57195653  0.00443556  0.58021184    -0.76400
O2002       O  0.57143024  0.07881602  0.54382321    -0.74800
O2003       O  0.54620106  0.08082467  0.51426247    -0.76600
O2004       O  0.54125163  0.45230444  0.58095762    -0.77500
O2005       O  0.60793020  0.04629824  0.53571373    -0.78800
O2006       O  0.54071902  0.04315906  0.58105826    -0.79100
Eu2007     Eu  0.55581432  0.02491057  0.55027922     2.39200
O2008       O  0.55548787  0.02408592  0.51316835    -0.86600
O2009       O  0.51036792  0.48237288  0.56223868    -0.90200
C2010       C  0.51542368  0.03942612  0.58851946     1.04500
C2011       C  0.61997898  0.04086672  0.51945157     1.04300
C2012       C  0.56288111  0.47769978  0.58824741     1.04200
C2013       C  0.56411889  0.09318299  0.53029261     1.02100
H2014       H  0.57092762  0.47965830  0.54344038     0.31800
O2015       O  0.55295960  0.47959644  0.53823995    -0.99000
H2016       H  0.51284771  0.04563734  0.54362258     0.31900
O2017       O  0.51292408  0.02777230  0.53834871    -1.01500
O2018       O  0.53052609  0.44133258  0.47130348    -0.78800
O2019       O  0.91380298  0.44693039  0.54424298    -0.78300
O2020       O  0.54545371  0.42095688  0.54387717    -0.76700
O2021       O  0.55103484  0.04374620  0.47147973    -0.80100
O2022       O  0.97346881  0.04106491  0.50651849    -0.77900
O2023       O  0.97107440  0.42130639  0.58067704    -0.76600
O2024       O  0.95089185  0.38666152  0.50671715    -0.78100
O2025       O  0.94829216  0.46159920  0.47170524    -0.80000
O2026       O  0.97649567  0.38455991  0.53603548    -0.76800
O2027       O  0.97993040  0.01358017  0.47067860    -0.79500
O2028       O  0.57237971  0.44579679  0.51411408    -0.75200
O2029       O  0.94978295  0.45213109  0.58129547    -0.75200
O2030       O  0.94591632  0.01563441  0.53592891    -0.74900
O2031       O  0.57151936  0.01223033  0.47050959    -0.78400
O2032       O  0.97851928  0.42088928  0.47053313    -0.77800
O2033       O  0.91157548  0.41980673  0.51455032    -0.76100
Eu2034     Eu  0.55219710  0.47841225  0.50098014     2.39800
Eu2035     Eu  0.96775490  0.48531933  0.55050660     2.39600
Eu2036     Eu  0.50734542  0.43679831  0.55045899     2.38400
Eu2037     Eu  0.51382120  0.02804884  0.50108227     2.39900
Eu2038     Eu  0.96423709  0.44009019  0.50118620     2.39800
O2039       O  0.96828077  0.48568537  0.51339959    -0.90500
O2040       O  0.50666435  0.43685697  0.51332519    -0.89400
C2041       C  0.50368129  0.42401345  0.46328640     1.04600
C2042       C  0.89933613  0.42531135  0.53067672     1.03400
C2043       C  0.56692331  0.42799995  0.53020392     1.02800
C2044       C  0.56845188  0.03437021  0.46342062     1.04800
C2045       C  0.95106785  0.03284995  0.51955667     1.03700
C2046       C  0.95361246  0.43063970  0.58873856     1.02500
C2047       C  0.95903719  0.37244199  0.51976661     1.02600
C2048       C  0.95770273  0.48839208  0.46363606     1.05200
H2049       H  0.94703077  0.42166190  0.54378685     0.32600
O2050       O  0.96486441  0.43959086  0.53846444    -1.02700
H2051       H  0.50997498  0.48216456  0.47363306     0.34600
O2052       O  0.51004402  0.48217210  0.48892740    -1.05200
C2053       C  0.50014886  0.06119466  0.92723644    -0.11000
C2054       C  0.50370912  0.05025536  0.94317882    -0.12500
C2055       C  0.94332728  0.08269995  0.87422472    -0.11000
C2056       C  0.92208281  0.08553649  0.86844726    -0.12500
C2057       C  0.68882922  0.23759957  0.78794476    -0.11000
C2058       C  0.68572521  0.24878912  0.77196888    -0.12500
C2059       C  0.76281236  0.20953987  0.84811744    -0.11000
C2060       C  0.74193582  0.21273684  0.84193568    -0.12500
C2061       C  0.63310089  0.17406695  0.84641737    -0.16200
C2062       C  0.60775516  0.15874381  0.85339820     0.07900
C2063       C  0.57773828  0.14082060  0.86093261     0.09700
C2064       C  0.55258049  0.12517342  0.86812449    -0.17000
C2065       C  0.59954328  0.32773280  0.09486132    -0.11000
C2066       C  0.61061787  0.32475131  0.11094671    -0.12500
C2067       C  0.57105515  0.40191401  0.03525065    -0.11000
C2068       C  0.57439308  0.38101416  0.04119764    -0.12500
C2069       C  0.94409034  0.08257153  0.00963945    -0.11000
C2070       C  0.94716650  0.06148112  0.01543599    -0.12500
C2071       C  0.92110928  0.13803509  0.95643363    -0.11000
C2072       C  0.90996687  0.14134172  0.94049633    -0.12500
C2073       C  0.98874373  0.19226402  0.01364055    -0.16200
C2074       C  0.50506418  0.21752981  0.02048179     0.07900
C2075       C  0.52339461  0.24755191  0.02794536     0.09700
C2076       C  0.53861208  0.27281917  0.03510472    -0.17000
C2077       C  0.57585311  0.37971660  0.17489989    -0.11000
C2078       C  0.59685293  0.37659130  0.18091217    -0.12500
C2079       C  0.52237428  0.40438436  0.12113076    -0.11000
C2080       C  0.51944448  0.41563223  0.10512364    -0.12500
C2081       C  0.83639490  0.21563211  0.27614400    -0.11000
C2082       C  0.83305225  0.22655541  0.26011069    -0.12500
C2083       C  0.77723550  0.24938202  0.20709215    -0.11000
C2084       C  0.75612905  0.25248787  0.20135791    -0.12500
C2085       C  0.96706897  0.34142713  0.18002118    -0.16200
C2086       C  0.94177706  0.32595639  0.18708424     0.07900
C2087       C  0.91178114  0.30770919  0.19462728     0.09700
C2088       C  0.88657864  0.29176725  0.20169621    -0.17000
C2089       C  0.66904451  0.38130967  0.60906895    -0.11000
C2090       C  0.66543524  0.39143361  0.59272314    -0.12500
C2091       C  0.60901764  0.41367923  0.53978484    -0.11000
C2092       C  0.58826977  0.41763751  0.53445512    -0.12500
C2093       C  0.85454839  0.06888994  0.45378932    -0.11000
C2094       C  0.85197289  0.08102485  0.43813096    -0.12500
C2095       C  0.92843844  0.04112415  0.51419479    -0.11000
C2096       C  0.90709858  0.04333150  0.50772311    -0.12500
C2097       C  0.79711599  0.99871677  0.50905930    -0.16200
C2098       C  0.77169402  0.48250135  0.51570211     0.07900
C2099       C  0.74173727  0.46428581  0.52334104     0.09700
C2100       C  0.71673554  0.44916905  0.53093832    -0.17000
C2101       C  0.61153347  0.41636686  0.67577269    -0.11000
C2102       C  0.61388677  0.39488570  0.68164668    -0.12500
C2103       C  0.58929986  0.47244227  0.62271820    -0.11000
C2104       C  0.57782919  0.47553434  0.60688988    -0.12500
C2105       C  0.74113843  0.21460494  0.70816809    -0.11000
C2106       C  0.73760729  0.23537045  0.70219336    -0.12500
C2107       C  0.76556138  0.16115945  0.76214189    -0.11000
C2108       C  0.77641018  0.15798711  0.77826581    -0.12500
C2109       C  0.65741471  0.02626455  0.67981015    -0.16200
C2110       C  0.67356929  0.05148666  0.68677315     0.07900
C2111       C  0.69154290  0.08146462  0.69440150     0.09700
C2112       C  0.70638673  0.10668309  0.70171031    -0.17000
C2113       C  0.90396477  0.06834562  0.36889834    -0.11000
C2114       C  0.90713630  0.04745555  0.37509371    -0.12500
C2115       C  0.93150236  0.49395011  0.42912016    -0.11000
C2116       C  0.94269351  0.49083195  0.44509810    -0.12500
C2117       C  0.77740929  0.24920201  0.34266008    -0.11000
C2118       C  0.78044787  0.22809401  0.34847578    -0.12500
C2119       C  0.75488900  0.30515052  0.28954194    -0.11000
C2120       C  0.74402540  0.30864167  0.27353343    -0.12500
C2121       C  0.81982271  0.35847150  0.34808404    -0.16200
C2122       C  0.83566098  0.38362551  0.35522936     0.07900
C2123       C  0.85372658  0.41355621  0.36288137     0.09700
C2124       C  0.86902655  0.43879532  0.37003963    -0.17000
C2125       C  0.93571529  0.47431096  0.10535503    -0.11000
C2126       C  0.92153745  0.47137491  0.12136480    -0.12500
C2127       C  0.81856623  0.39723545  0.18080363    -0.11000
C2128       C  0.84272718  0.41819011  0.17479308    -0.12500
C2129       C  0.91815972  0.15690343  0.27632175    -0.11000
C2130       C  0.93265079  0.16043722  0.26036837    -0.12500
C2131       C  0.53530062  0.23762303  0.20141000    -0.11000
C2132       C  0.51118971  0.21649844  0.20727179    -0.12500
C2133       C  0.91387375  0.02675454  0.18019369    -0.16200
C2134       C  0.92380480  0.05200915  0.18733025     0.07900
C2135       C  0.93561637  0.08195493  0.19495066     0.09700
C2136       C  0.94484285  0.10711898  0.20205635    -0.17000
C2137       C  0.98598563  0.21257826  0.34833429    -0.11000
C2138       C  0.51015184  0.21567619  0.34248765    -0.12500
C2139       C  0.58851015  0.23805413  0.28925105    -0.11000
C2140       C  0.60292189  0.24910214  0.27327791    -0.12500
C2141       C  0.58588703  0.04941919  0.44488454    -0.11000
C2142       C  0.60032136  0.06094214  0.42900448    -0.12500
C2143       C  0.70279752  0.08920869  0.36910025    -0.11000
C2144       C  0.67881865  0.08623775  0.37531788    -0.12500
C2145       C  0.57811089  0.17462378  0.34853912    -0.16200
C2146       C  0.58760116  0.15906725  0.35593014     0.07900
C2147       C  0.59946545  0.14108867  0.36377218     0.09700
C2148       C  0.60924691  0.12564733  0.37092710    -0.17000
C2149       C  0.84553467  0.41845857  0.04119105    -0.11000
C2150       C  0.86982765  0.42195987  0.03523646    -0.12500
C2151       C  0.76739283  0.39388268  0.09499831    -0.11000
C2152       C  0.75325776  0.38297335  0.11107525    -0.12500
C2153       C  0.75519746  0.07098034  0.95650158    -0.11000
C2154       C  0.76944105  0.08209844  0.94051396    -0.12500
C2155       C  0.65329872  0.04635358  0.01541722    -0.11000
C2156       C  0.67737579  0.04907284  0.00979293    -0.12500
C2157       C  0.77379703  0.45505965  0.03541578    -0.16200
C2158       C  0.76369549  0.47029546  0.02840547     0.07900
C2159       C  0.75175244  0.48845625  0.02109064     0.09700
C2160       C  0.74254308  0.00454997  0.01426445    -0.17000
C2161       C  0.76456038  0.32632497  0.59336308    -0.11000
C2162       C  0.75048452  0.32277911  0.60951934    -0.12500
C2163       C  0.86775491  0.40380093  0.53511340    -0.11000
C2164       C  0.84326002  0.38282847  0.54054339    -0.12500
C2165       C  0.67488769  0.08435739  0.50798501    -0.11000
C2166       C  0.65105626  0.06316962  0.51422579    -0.12500
C2167       C  0.76796159  0.14049986  0.43858847    -0.11000
C2168       C  0.75341030  0.13763000  0.45439451    -0.12500
C2169       C  0.74153641  0.19404591  0.51077182    -0.16200
C2170       C  0.75092592  0.21944320  0.51750814     0.07900
C2171       C  0.76282995  0.24944747  0.52507062     0.09700
C2172       C  0.77269809  0.27453273  0.53250836    -0.17000
C2173       C  0.93319567  0.22746574  0.76230806    -0.11000
C2174       C  0.91885065  0.21605519  0.77822901    -0.12500
C2175       C  0.51172247  0.25258821  0.70872768    -0.11000
C2176       C  0.53571649  0.25549980  0.70259413    -0.12500
C2177       C  0.81912464  0.37974236  0.68185144    -0.11000
C2178       C  0.84351253  0.38308807  0.67632052    -0.12500
C2179       C  0.92266442  0.40571842  0.62374537    -0.11000
C2180       C  0.93687067  0.41630869  0.60764438    -0.12500
C2181       C  0.91177886  0.34244606  0.68313834    -0.16200
C2182       C  0.92126706  0.32676139  0.69030323     0.07900
C2183       C  0.93316438  0.30861708  0.69775771     0.09700
C2184       C  0.94288409  0.29296597  0.70462213    -0.17000
C2185       C  0.70088407  0.07080334  0.86791202    -0.11000
C2186       C  0.67657737  0.04963156  0.87337817    -0.12500
C2187       C  0.59812654  0.49339244  0.92624129    -0.11000
C2188       C  0.58411494  0.49012897  0.94237279    -0.12500
C2189       C  0.50826954  0.25074474  0.84157748    -0.11000
C2190       C  0.98422345  0.22973955  0.84769107    -0.12500
C2191       C  0.60097012  0.30706453  0.77193979    -0.11000
C2192       C  0.58661668  0.30405191  0.78787146    -0.12500
C2193       C  0.57853958  0.35958552  0.84637957    -0.16200
C2194       C  0.58856886  0.38496832  0.85329762     0.07900
C2195       C  0.60059542  0.41506663  0.86065471     0.09700
C2196       C  0.60995655  0.44031604  0.86763822    -0.17000
C2197       C  0.77693904  0.07516154  0.27625610    -0.11000
C2198       C  0.76586224  0.06073368  0.26030807    -0.12500
C2199       C  0.74089859  0.45845086  0.20128826    -0.11000
C2200       C  0.74366368  0.48248658  0.20710642    -0.12500
C2201       C  0.58964593  0.07313904  0.12097655    -0.11000
C2202       C  0.57850763  0.05884294  0.10499091    -0.12500
C2203       C  0.61358756  0.15098084  0.17490965    -0.11000
C2204       C  0.61681141  0.17513382  0.18093947    -0.12500
C2205       C  0.69982473  0.04820639  0.20230113    -0.16200
C2206       C  0.68396815  0.05757932  0.19528602     0.07900
C2207       C  0.66607358  0.06969295  0.18773403     0.09700
C2208       C  0.65100094  0.07988108  0.18056576    -0.17000
C2209       C  0.74345259  0.48280534  0.34267994    -0.11000
C2210       C  0.76472573  0.00692114  0.34838008    -0.12500
C2211       C  0.68472754  0.39015191  0.27356922    -0.11000
C2212       C  0.68782072  0.40440330  0.28956752    -0.12500
C2213       C  0.49816644  0.39292491  0.42841342    -0.11000
C2214       C  0.50118783  0.40689929  0.44454786    -0.12500
C2215       C  0.94497709  0.31469536  0.37460049    -0.11000
C2216       C  0.92416079  0.29038725  0.36867381    -0.12500
C2217       C  0.55339337  0.38643515  0.36902132    -0.16200
C2218       C  0.57866368  0.39630816  0.36190313     0.07900
C2219       C  0.60864349  0.40790850  0.35436407     0.09700
C2220       C  0.63385483  0.41692444  0.34738471    -0.17000
C2221       C  0.59169638  0.12400853  0.03537099    -0.11000
C2222       C  0.61273065  0.14803987  0.04147084    -0.12500
C2223       C  0.66900158  0.24077968  0.11104812    -0.11000
C2224       C  0.66603514  0.22643596  0.09512084    -0.12500
C2225       C  0.85482299  0.23700290  0.95694111    -0.11000
C2226       C  0.85107270  0.22280773  0.94081372    -0.12500
C2227       C  0.91146495  0.31604629  0.00956993    -0.11000
C2228       C  0.93245765  0.34051658  0.01501951    -0.12500
C2229       C  0.80299596  0.24623242  0.01729657    -0.16200
C2230       C  0.77780083  0.23658756  0.02445944     0.07900
C2231       C  0.74767664  0.22482818  0.03168528     0.09700
C2232       C  0.72221301  0.21545058  0.03825859    -0.17000
C2233       C  0.59987041  0.22771932  0.59324638    -0.11000
C2234       C  0.61021877  0.24165512  0.60948990    -0.12500
C2235       C  0.57422353  0.12478602  0.53468753    -0.11000
C2236       C  0.57785478  0.14931307  0.54015097    -0.12500
C2237       C  0.95029147  0.34136012  0.51456111    -0.11000
C2238       C  0.94766041  0.31755750  0.50825728    -0.12500
C2239       C  0.91089213  0.22463824  0.43870444    -0.11000
C2240       C  0.92253328  0.23919106  0.45451736    -0.12500
C2241       C  0.99135091  0.25147527  0.51057018    -0.16200
C2242       C  0.50750296  0.24218927  0.51717423     0.07900
C2243       C  0.52570974  0.23035414  0.52461666     0.09700
C2244       C  0.54092208  0.22046960  0.53202213    -0.17000
C2245       C  0.90682529  0.29125576  0.86856032    -0.11000
C2246       C  0.90972116  0.31539691  0.87426492    -0.12500
C2247       C  0.93286223  0.39458180  0.92690148    -0.11000
C2248       C  0.94410228  0.40911524  0.94279138    -0.12500
C2249       C  0.75466162  0.40528442  0.78816881    -0.11000
C2250       C  0.74359898  0.39118241  0.77209984    -0.12500
C2251       C  0.78289710  0.00796973  0.84772222    -0.11000
C2252       C  0.77961406  0.48375878  0.84176147    -0.12500
C2253       C  0.81613784  0.41192339  0.84771534    -0.16200
C2254       C  0.83137295  0.40188988  0.85486185     0.07900
C2255       C  0.84958474  0.39009187  0.86237756     0.09700
C2256       C  0.86572551  0.38100537  0.86933592    -0.17000
C2257       C  0.59844324  0.17313110  0.68217188    -0.11000
C2258       C  0.57745865  0.14871781  0.67663042    -0.12500
C2259       C  0.52124941  0.07027770  0.62357257    -0.11000
C2260       C  0.51783299  0.05623749  0.60740791    -0.12500
C2261       C  0.75767098  0.45654823  0.70228455    -0.11000
C2262       C  0.77876633  0.48048359  0.70848736    -0.12500
C2263       C  0.83451862  0.07323135  0.77816671    -0.11000
C2264       C  0.83165947  0.05881599  0.76228871    -0.12500
C2265       C  0.96868993  0.07975966  0.68352266    -0.16200
C2266       C  0.94356208  0.07022462  0.69080631     0.07900
C2267       C  0.91354792  0.05844083  0.69832251     0.09700
C2268       C  0.88815151  0.04886142  0.70512275    -0.17000
C2269       C  0.80600396  0.50658314  0.71659326     0.82500
N2270       N  0.83314625  0.51588198  0.70672221    -0.75800
C2271       C  0.85923800  0.53918500  0.71492136     0.85000
N2272       N  0.85831833  0.55300142  0.73298938    -0.75700
C2273       C  0.83146243  0.54380093  0.74298136     0.85100
N2274       N  0.80515999  0.52044093  0.73487941    -0.77400
C2275       C  0.54990274  0.62226701  0.66934921     0.82500
N2276       N  0.54950932  0.60852772  0.65070393    -0.75800
C2277       C  0.52272530  0.58507247  0.64327616     0.85000
N2278       N  0.49660436  0.57569464  0.65429451    -0.75700
C2279       C  0.99692142  0.58939997  0.67273567     0.85100
N2280       N  0.52349708  0.61280734  0.68024980    -0.77400
C2281       C  0.77998714  0.95705598  0.83411184     0.82500
N2282       N  0.76624826  0.94374308  0.81545740    -0.75800
C2283       C  0.76847915  0.91973573  0.80784568     0.85000
N2284       N  0.78447556  0.90933807  0.81870110    -0.75700
C2285       C  0.79824080  0.92259204  0.83715112     0.85100
N2286       N  0.79618717  0.94656429  0.84484949    -0.77400
C2287       C  0.90789024  0.84135177  0.88179675     0.82500
N2288       N  0.88935861  0.84951961  0.87164422    -0.75800
C2289       C  0.88561827  0.87244135  0.87945167     0.85000
N2290       N  0.90008478  0.88699243  0.89741359    -0.75700
C2291       C  0.91842946  0.87891909  0.90767707     0.85100
N2292       N  0.92231053  0.85593216  0.89997464    -0.77400
C2293       C  0.94929285  0.79179758  0.50000945     0.82500
N2294       N  0.96803102  0.78331470  0.50949465    -0.75800
C2295       C  0.97134878  0.76042770  0.50111258     0.85000
N2296       N  0.95622585  0.74619474  0.48325573    -0.75700
C2297       C  0.93767030  0.75457464  0.47364769     0.85100
N2298       N  0.93420408  0.77753213  0.48192433    -0.77400
C2299       C  0.57722651  0.67609515  0.54726333     0.82500
N2300       N  0.58998049  0.68943169  0.56613678    -0.75800
C2301       C  0.58712246  0.71326972  0.57333975     0.85000
N2302       N  0.57143982  0.72343331  0.56186406    -0.75700
C2303       C  0.55865258  0.71014913  0.54319360     0.85100
N2304       N  0.56133289  0.68635121  0.53590593    -0.77400
C2305       C  0.88392697  0.78938356  0.00249633     0.82500
N2306       N  0.88335874  0.77559535  0.98383152    -0.75800
C2307       C  0.85657049  0.75186391  0.97665130     0.85000
N2308       N  0.83063723  0.74226596  0.98792096    -0.75700
C2309       C  0.83112251  0.75600725  0.00637065     0.85100
N2310       N  0.85768397  0.77969741  0.01365034    -0.77400
C2311       C  0.64002336  0.67412662  0.04948503     0.82500
N2312       N  0.63928534  0.68816221  0.06770840    -0.75800
C2313       C  0.66568460  0.71136979  0.07581370     0.85000
N2314       N  0.69251988  0.72021593  0.06590524    -0.75700
C2315       C  0.69332283  0.70621313  0.04790585     0.85100
N2316       N  0.66714481  0.68306546  0.03969590    -0.77400
C2317       C  0.97197527  0.84143639  0.38230409     0.82500
N2318       N  0.97142901  0.85466981  0.40096908    -0.75800
C2319       C  0.99763530  0.87861716  0.40868505     0.85000
N2320       N  0.52411956  0.88901610  0.39792737    -0.75700
C2321       C  0.52474626  0.87583595  0.37946872     0.85100
N2322       N  0.99875320  0.85193137  0.37167010    -0.77400
C2323       C  0.71572620  0.95689870  0.33504807     0.82500
N2324       N  0.68897409  0.94850531  0.34520560    -0.75800
C2325       C  0.66236616  0.92563543  0.33728429     0.85000
N2326       N  0.66239127  0.91137476  0.31919629    -0.75700
C2327       C  0.68887620  0.91970007  0.30892843     0.85100
N2328       N  0.71567690  0.94262550  0.31675053    -0.77400
C2329       C  0.61428849  0.62451506  0.16712983     0.82500
N2330       N  0.60076622  0.61133632  0.14839121    -0.75800
C2331       C  0.60341309  0.58762851  0.14064679     0.85000
N2332       N  0.61958003  0.57739490  0.15145408    -0.75700
C2333       C  0.63311472  0.59051531  0.16998280     0.85100
N2334       N  0.63065343  0.61418042  0.17782218    -0.77400
C2335       C  0.74165013  0.50825621  0.21480126     0.82500
N2336       N  0.72330029  0.51660009  0.20459225    -0.75800
C2337       C  0.71942283  0.53937537  0.21251363     0.85000
N2338       N  0.73356349  0.55360615  0.23063444    -0.75700
C2339       C  0.75170962  0.54534175  0.24095776     0.85100
N2340       N  0.75574240  0.52250426  0.23314471    -0.77400
C2341       C  0.53464103  0.77791043  0.83369752     0.82500
N2342       N  0.54817474  0.77730013  0.81519176    -0.75800
C2343       C  0.57185985  0.80359148  0.80735770     0.85000
N2344       N  0.58171633  0.83019490  0.81783999    -0.75700
C2345       C  0.56823782  0.83087711  0.83613252     0.85100
N2346       N  0.54459501  0.80481056  0.84406371    -0.77400
C2347       C  0.65046790  0.52190987  0.88073953     0.82500
N2348       N  0.63628005  0.52161041  0.89913353    -0.75800
C2349       C  0.61322403  0.49474394  0.90674380     0.85000
N2350       N  0.60469199  0.96844431  0.89618084    -0.75700
C2351       C  0.61886808  0.96867117  0.87799642     0.85100
N2352       N  0.64188154  0.99533805  0.87027867    -0.77400
C2353       C  0.86994707  0.88188380  0.66911730     0.82500
N2354       N  0.88407208  0.89556944  0.65064551    -0.75800
C2355       C  0.90754653  0.89220263  0.64330656     0.85000
N2356       N  0.91655064  0.87509408  0.65422284    -0.75700
C2357       C  0.90246007  0.86136204  0.67247618     0.85100
N2358       N  0.87903762  0.86456220  0.67991517    -0.77400
C2359       C  0.98550705  0.75365014  0.71666892     0.82500
N2360       N  0.97610051  0.77125073  0.70658896    -0.75800
C2361       C  0.95267854  0.77397490  0.71462554     0.85000
N2362       N  0.93886490  0.75943997  0.73274331    -0.75700
C2363       C  0.94817398  0.74203275  0.74294112     0.85100
N2364       N  0.97164144  0.73913929  0.73499966    -0.77400
C2365       C  0.70073452  0.61174573  0.49982964     0.82500
N2366       N  0.71496468  0.61096331  0.48171895    -0.75800
C2367       C  0.73805323  0.63737619  0.47354101     0.85000
N2368       N  0.74660991  0.66427463  0.48327967    -0.75700
C2369       C  0.73240798  0.66512777  0.50116773     0.85100
N2370       N  0.70938345  0.63892395  0.50944769    -0.77400
C2371       C  0.81655727  0.85533215  0.54762258     0.82500
N2372       N  0.80658314  0.82913666  0.53635271    -0.75800
C2373       C  0.78285050  0.80260281  0.54363445     0.85000
N2374       N  0.76934963  0.80210815  0.56220385    -0.75700
C2375       C  0.77923773  0.82800446  0.57358216     0.85100
N2376       N  0.80300142  0.85474991  0.56639134    -0.77400
C2377       C  0.70307690  0.54696903  0.00211993     0.82500
N2378       N  0.71127706  0.52843921  0.01223409    -0.75800
C2379       C  0.73390278  0.52439782  0.00420575     0.85000
N2380       N  0.74809202  0.53853457  0.98607469    -0.75700
C2381       C  0.73994109  0.55684724  0.97586404     0.85100
N2382       N  0.71727475  0.56104202  0.98377946    -0.77400
C2383       C  0.81883024  0.91878194  0.04887358     0.82500
N2384       N  0.80564972  0.90517549  0.06759016    -0.75800
C2385       C  0.78173512  0.90752383  0.07526604     0.85000
N2386       N  0.77132155  0.92350550  0.06442410    -0.75700
C2387       C  0.78444744  0.93713259  0.04592251     0.85100
N2388       N  0.80831780  0.93496980  0.03815218    -0.77400
C2389       C  0.65256714  0.58718561  0.38330278     0.82500
N2390       N  0.63886723  0.57281239  0.40171151    -0.75800
C2391       C  0.61527311  0.57552737  0.40962007     0.85000
N2392       N  0.60567637  0.59261761  0.39930160    -0.75700
C2393       C  0.61933698  0.60701460  0.38110758     0.85100
N2394       N  0.64286776  0.60445564  0.37310968    -0.77400
C2395       C  0.53627266  0.71417328  0.33492747     0.82500
N2396       N  0.55013065  0.72778325  0.31636894    -0.75800
C2397       C  0.57338534  0.72424204  0.30877164     0.85000
N2398       N  0.58245313  0.70705808  0.31954316    -0.75700
C2399       C  0.56861637  0.69340985  0.33788758     0.85100
N2400       N  0.54543256  0.69680232  0.34557374    -0.77400
C2401       C  0.98525054  0.68878812  0.21489530     0.82500
N2402       N  0.97669782  0.66213821  0.20456016    -0.75800
C2403       C  0.95374796  0.63551031  0.21236312     0.85000
N2404       N  0.93954726  0.63539170  0.23050752    -0.75700
C2405       C  0.94801185  0.66175486  0.24097046     0.85100
N2406       N  0.97103624  0.68861179  0.23326833    -0.77400
C2407       C  0.86934714  0.94527537  0.16706857     0.82500
N2408       N  0.87952946  0.97210417  0.17757369    -0.75800
C2409       C  0.90343339  0.99811290  0.16980446     0.85000
N2410       N  0.91694736  0.99745169  0.15151732    -0.75700
C2411       C  0.90686079  0.97091125  0.14089408     0.85100
N2412       N  0.88291359  0.94468563  0.14857501    -0.77400
C2413       C  0.77904182  0.77686371  0.33507740     0.82500
N2414       N  0.79694718  0.80349880  0.34548470    -0.75800
C2415       C  0.80050460  0.83009175  0.33771620     0.85000
N2416       N  0.78650597  0.83019660  0.31953161    -0.75700
C2417       C  0.76880214  0.80384873  0.30899782     0.85100
N2418       N  0.76508569  0.77702698  0.31666629    -0.77400
C2419       C  0.90637190  0.52032237  0.38301505     0.82500
N2420       N  0.88970640  0.99349489  0.37252061    -0.75800
C2421       C  0.88721377  0.96741103  0.38044932     0.85000
N2422       N  0.90103343  0.96799123  0.39888076    -0.75700
C2423       C  0.91750983  0.49452366  0.40950536     0.85100
N2424       N  0.92017965  0.52084454  0.40166450    -0.77400
C2425       C  0.74102420  0.68766481  0.71582336     0.82500
N2426       N  0.72550359  0.66109236  0.70484603    -0.75800
C2427       C  0.72363325  0.63514571  0.71252117     0.85000
N2428       N  0.73688437  0.63560102  0.73118713    -0.75700
C2429       C  0.75219723  0.66186790  0.74228495     0.85100
N2430       N  0.75425929  0.68804079  0.73469579    -0.77400
C2431       C  0.61401494  0.94429226  0.66796293     0.82500
N2432       N  0.63303339  0.97106227  0.67787704    -0.75800
C2433       C  0.63724792  0.99777768  0.66983102     0.85000
N2434       N  0.62273639  0.99783388  0.65188731    -0.75700
C2435       C  0.60391781  0.97132905  0.64186479     0.85100
N2436       N  0.59956815  0.94441618  0.64980240    -0.77400
C2437       C  0.87970779  0.54140142  0.49920622     0.82500
N2438       N  0.88077669  0.55678954  0.48123359    -0.75800
C2439       C  0.85444498  0.55324276  0.47274013     0.85000
N2440       N  0.82733719  0.53432803  0.48204108    -0.75700
C2441       C  0.82620094  0.51889994  0.49979608     0.85100
N2442       N  0.85233192  0.52230725  0.50838746    -0.77400
C2443       C  0.63631211  0.91390341  0.54672661     0.82500
N2444       N  0.66233776  0.92934143  0.53516629    -0.75800
C2445       C  0.68876730  0.93173645  0.54229447     0.85000
N2446       N  0.68934705  0.91912726  0.56102503    -0.75700
C2447       C  0.66362633  0.90389440  0.57270985     0.85100
N2448       N  0.63698423  0.90133324  0.56565749    -0.77400
C2449       C  0.80489305  0.75093224  0.21462575     0.82500
N2450       N  0.83155604  0.76886982  0.20424799    -0.75800
C2451       C  0.85814238  0.77237037  0.21201162     0.85000
N2452       N  0.85819980  0.75828487  0.23016822    -0.75700
C2453       C  0.83182245  0.74054419  0.24066697     0.85100
N2454       N  0.80502358  0.73689243  0.23299909    -0.77400
C2455       C  0.54868069  0.87899688  0.16709504     0.82500
N2456       N  0.52184015  0.86224146  0.17757120    -0.75800
C2457       C  0.99574041  0.85979852  0.16968331     0.85000
N2458       N  0.49633583  0.87375481  0.15130941    -0.75700
C2459       C  0.52288669  0.89031410  0.14071511     0.85100
N2460       N  0.54919500  0.89292156  0.14851425    -0.77400
C2461       C  0.94593873  0.61025396  0.00189178     0.82500
N2462       N  0.96468799  0.63709483  0.01181397    -0.75800
C2463       C  0.96860912  0.66368674  0.00375524     0.85000
N2464       N  0.95410407  0.66356347  0.98576407    -0.75700
C2465       C  0.93553583  0.63699912  0.97571958     0.85100
N2466       N  0.93147889  0.61019000  0.98367606    -0.77400
C2467       C  0.57417901  0.85401476  0.04884721     0.82500
N2468       N  0.55822215  0.82733888  0.03804401    -0.75800
C2469       C  0.55633403  0.80138127  0.04571851     0.85000
N2470       N  0.57001502  0.80193607  0.06421601    -0.75700
C2471       C  0.58577389  0.82831352  0.07514151     0.85100
N2472       N  0.58783965  0.85448697  0.06754821    -0.77400
C2473       C  0.71483378  0.71197057  0.83395953     0.82500
N2474       N  0.71552671  0.72607748  0.81541967    -0.75800
C2475       C  0.68924972  0.72340060  0.80748658     0.85000
N2476       N  0.66259246  0.70661723  0.81790205    -0.75700
C2477       C  0.66183904  0.69249237  0.83622063     0.85100
N2478       N  0.68788130  0.69499065  0.84424891    -0.77400
C2479       C  0.97115269  0.58460167  0.88171390     0.82500
N2480       N  0.99762305  0.60233838  0.87107989    -0.75800
C2481       C  0.52435457  0.60609365  0.87873690     0.85000
N2482       N  0.52475788  0.59246037  0.89702268    -0.75700
C2483       C  0.99857802  0.57492991  0.90777357     0.85100
N2484       N  0.97162125  0.57100725  0.90021903    -0.77400
O2485       O  0.86376686  0.60792974  0.80479952    -0.77800
O2486       O  0.74684253  0.61380301  0.87726543    -0.79400
O2487       O  0.78384930  0.55345566  0.83981379    -0.76400
O2488       O  0.78172873  0.62859606  0.80485667    -0.74800
O2489       O  0.81329332  0.68059134  0.80407924    -0.76600
O2490       O  0.80949330  0.55123941  0.86906359    -0.77500
O2491       O  0.74475658  0.58686613  0.84749607    -0.78800
O2492       O  0.81179528  0.58768578  0.80381609    -0.79100
Eu2493     Eu  0.79743713  0.60698315  0.83436934     2.39200
O2494       O  0.80141616  0.65252236  0.84670833    -0.86600
O2495       O  0.83973909  0.60354295  0.84651505    -0.90200
C2496       C  0.83696042  0.59064015  0.79672392     1.04500
C2497       C  0.73245011  0.59232311  0.86359364     1.04300
C2498       C  0.79196150  0.53916488  0.85282636     1.04200
C2499       C  0.79117562  0.65544601  0.79689173     1.02100
H2500       H  0.77994316  0.58833929  0.87688048     0.31800
O2501       O  0.79783454  0.60629269  0.87164092    -0.99000
H2502       H  0.84327528  0.64909754  0.80695323     0.31900
O2503       O  0.84329154  0.64906198  0.82224720    -1.01500
O2504       O  0.82171048  0.68844683  0.91395431    -0.78800
O2505       O  0.93882694  0.68514012  0.83980772    -0.78300
O2506       O  0.80379786  0.58752950  0.91365304    -0.76700
O2507       O  0.80722461  0.70848153  0.84015382    -0.80100
O2508       O  0.88425377  0.71060712  0.80493306    -0.77900
O2509       O  0.87860987  0.58786158  0.87734341    -0.76600
O2510       O  0.90464228  0.67057229  0.91373137    -0.78100
O2511       O  0.90437527  0.74537690  0.87748740    -0.80000
O2512       O  0.87369989  0.61846900  0.91433570    -0.76800
O2513       O  0.87940577  0.74755357  0.84783255    -0.79500
O2514       O  0.78255678  0.61839549  0.91445622    -0.75200
O2515       O  0.90574069  0.61287979  0.84768925    -0.75200
O2516       O  0.90456018  0.67894093  0.80387325    -0.74900
O2517       O  0.77945058  0.68290834  0.86945761    -0.78400
O2518       O  0.87383066  0.70965463  0.91449182    -0.77800
O2519       O  0.94102074  0.71290283  0.86912321    -0.76100
Eu2520     Eu  0.80076300  0.65198192  0.88383290     2.39800
Eu2521     Eu  0.88534007  0.64518423  0.83435952     2.39600
Eu2522     Eu  0.84024858  0.60337777  0.88363069     2.38400
Eu2523     Eu  0.84707727  0.69487387  0.83453021     2.39900
Eu2524     Eu  0.88889273  0.69145003  0.88374049     2.39800
O2525       O  0.88870571  0.69085796  0.84662664    -0.90500
O2526       O  0.84331034  0.64890987  0.89554245    -0.89400
C2527       C  0.84855057  0.70593393  0.92195096     1.04600
C2528       C  0.95309244  0.70751710  0.85284834     1.03400
C2529       C  0.78630621  0.59677348  0.92175168     1.02800
C2530       C  0.78489735  0.70043969  0.85322278     1.04800
C2531       C  0.90154276  0.70112189  0.79681574     1.03700
C2532       C  0.90030012  0.59516811  0.86382311     1.02500
C2533       C  0.89534002  0.64376010  0.92173808     1.02600
C2534       C  0.89711465  0.75980143  0.86396907     1.06400
H2535       H  0.90391594  0.64630927  0.87688436     0.32600
O2536       O  0.88596251  0.64620630  0.87161216    -1.02700
H2537       H  0.84595658  0.71218580  0.87709191     0.34600
O2538       O  0.84604061  0.69434457  0.87178135    -1.05200
O2539       O  0.94970888  0.94373153  0.96958460    -0.77800
O2540       O  0.57014533  0.94641388  0.04335346    -0.79400
O2541       O  0.55010291  0.96109752  0.96937986    -0.76400
O2542       O  0.97558244  0.88650400  0.00584427    -0.74800
O2543       O  0.94859984  0.88436318  0.03559018    -0.76600
O2544       O  0.57150155  0.01322853  0.96880564    -0.77500
O2545       O  0.54462397  0.91885974  0.01396230    -0.78800
O2546       O  0.98036885  0.92225815  0.96890267    -0.79100
Eu2547     Eu  0.51391977  0.94041427  0.99955773     2.39200
O2548       O  0.51441458  0.94090503  0.03667536    -0.86600
O2549       O  0.51100823  0.98304706  0.98784238    -0.90200
C2550       C  0.95884259  0.92611006  0.96153529     1.04500
C2551       C  0.56205802  0.92412439  0.03023364     1.04300
C2552       C  0.56756073  0.98786988  0.96132495     1.04200
C2553       C  0.95401565  0.87208382  0.01944514     1.02100
H2554       H  0.57426401  0.98546830  0.00636250     0.31800
O2555       O  0.55643006  0.98558588  0.01166510    -0.99000
H2556       H  0.95033465  0.91978750  0.00638815     0.31900
O2557       O  0.96829918  0.93762422  0.01167568    -1.01500
O2558       O  0.57278225  0.52389693  0.07844786    -0.78800
O2559       O  0.94979628  0.51824819  0.00632380    -0.78300
O2560       O  0.60752171  0.54392671  0.00624337    -0.76700
O2561       O  0.99030715  0.92115628  0.07844854    -0.80100
O2562       O  0.91538969  0.92324063  0.04332533    -0.77900
O2563       O  0.53292869  0.54457391  0.96978437    -0.76600
O2564       O  0.54726312  0.57853299  0.04340080    -0.78100
O2565       O  0.97031576  0.50354018  0.07868514    -0.80000
O2566       O  0.57502179  0.58070585  0.01408920    -0.76800
O2567       O  0.94973944  0.95152288  0.07949177    -0.79500
O2568       O  0.60947722  0.01880764  0.03588834    -0.75200
O2569       O  0.98077894  0.51389622  0.96923171    -0.75200
O2570       O  0.91326943  0.94899753  0.01411163    -0.74900
O2571       O  0.54229818  0.95272957  0.07945025    -0.78400
O2572       O  0.54132536  0.54444501  0.07940535    -0.77800
O2573       O  0.97495832  0.54538890  0.03594103    -0.76100
Eu2574     Eu  0.55677934  0.98648243  0.04895523     2.39800
Eu2575     Eu  0.96549833  0.98008137  0.99972944     2.39600
Eu2576     Eu  0.55365108  0.52850635  0.99968358     2.38400
Eu2577     Eu  0.96890804  0.93705400  0.04892474     2.39900
Eu2578     Eu  0.50738599  0.52503124  0.04903785     2.39800
O2579       O  0.96563803  0.97949842  0.03684981    -0.90500
O2580       O  0.55297911  0.52821838  0.03680161    -0.89400
C2581       C  0.56347392  0.54138567  0.08647318     1.04600
C2582       C  0.95708653  0.53987844  0.01989426     1.03400
C2583       C  0.62183245  0.53661986  0.01983266     1.02800
C2584       C  0.51708840  0.93057183  0.08652936     1.04800
C2585       C  0.90112126  0.93130737  0.03026645     1.03700
C2586       C  0.50611281  0.53548595  0.96184971     1.02500
C2587       C  0.56958108  0.59280919  0.03031609     1.02600
C2588       C  0.95291988  0.97672352  0.08669853     1.05200
H2589       H  0.50849979  0.54365386  0.00659516     0.32600
O2590       O  0.50841922  0.52568687  0.01180471    -1.02700
H2591       H  0.51105470  0.98284046  0.07645309     0.34600
O2592       O  0.51102416  0.98285321  0.06115846    -1.05200
O2593       O  0.90527575  0.68985466  0.41208324    -0.77800
O2594       O  0.78284019  0.68468441  0.33952240    -0.79400
O2595       O  0.87995800  0.74477613  0.37689499    -0.76400
O2596       O  0.80279065  0.66973333  0.41202291    -0.74800
O2597       O  0.78235150  0.61773869  0.41292799    -0.76600
O2598       O  0.90752261  0.74697113  0.34746947    -0.77500
O2599       O  0.80786428  0.71176926  0.36919980    -0.78800
O2600       O  0.87383991  0.71043261  0.41300987    -0.79100
Eu2601     Eu  0.84009780  0.69126563  0.38249567     2.39200
O2602       O  0.79838593  0.64575909  0.37024555    -0.86600
O2603       O  0.88575790  0.69453017  0.37028595    -0.90200
C2604       C  0.89590445  0.70727267  0.42014090     1.04500
C2605       C  0.79014821  0.70635213  0.35306608     1.04300
C2606       C  0.90215856  0.75908553  0.36372953     1.04200
C2607       C  0.78540245  0.64292468  0.42005561     1.02100
H2608       H  0.84123810  0.70982423  0.33995744     0.31800
O2609       O  0.84108173  0.69185161  0.34523665    -0.99000
H2610       H  0.84372374  0.64901410  0.40992662     0.31900
O2611       O  0.84374023  0.64908387  0.39463098    -1.01500
O2612       O  0.78240429  0.60969016  0.30307275    -0.78800
O2613       O  0.90308169  0.61285999  0.37682373    -0.78300
O2614       O  0.86550052  0.71032052  0.30301674    -0.76700
O2615       O  0.74815192  0.58991335  0.37692269    -0.80100
O2616       O  0.82291651  0.58716055  0.41173823    -0.77900
O2617       O  0.94015290  0.71020240  0.33950812    -0.76600
O2618       O  0.88342766  0.62757798  0.30301247    -0.78100
O2619       O  0.80819810  0.55272030  0.33937649    -0.80000
O2620       O  0.90475327  0.67970311  0.30249127    -0.76800
O2621       O  0.78110257  0.55066325  0.36904671    -0.79500
O2622       O  0.81336573  0.67960484  0.30240806    -0.75200
O2623       O  0.94226083  0.68502846  0.36907108    -0.75200
O2624       O  0.87492813  0.61860570  0.41274458    -0.74900
O2625       O  0.74600604  0.61552907  0.34763828    -0.78400
O2626       O  0.81323537  0.58840321  0.30233791    -0.77800
O2627       O  0.87744998  0.58511365  0.34751836    -0.76100
Eu2628     Eu  0.79821216  0.64622431  0.33312266     2.39800
Eu2629     Eu  0.88954064  0.65275940  0.38242357     2.39600
Eu2630     Eu  0.88628655  0.69470682  0.33314499     2.38400
Eu2631     Eu  0.80160000  0.60333555  0.38236676     2.39900
Eu2632     Eu  0.84672120  0.60660585  0.33300889     2.39800
O2633       O  0.84713423  0.60720238  0.37013063    -0.90500
O2634       O  0.84374024  0.64919766  0.32125165    -0.89400
C2635       C  0.79162632  0.59214707  0.29500563     1.04600
C2636       C  0.89496397  0.59050696  0.36376551     1.03400
C2637       C  0.83871526  0.70110679  0.29498350     1.02800
C2638       C  0.73390922  0.59806169  0.36390194     1.04800
C2639       C  0.84969045  0.59640041  0.41976075     1.03700
C2640       C  0.95453826  0.70283363  0.35297712     1.02500
C2641       C  0.90104808  0.65441469  0.29505995     1.02600
C2642       C  0.78652153  0.53836264  0.35292288     1.05200
H2643       H  0.90690617  0.65170060  0.33987561     0.32600
O2644       O  0.88906691  0.65181353  0.34516182    -1.02700
H2645       H  0.78306899  0.58599879  0.33982648     0.34600
O2646       O  0.80105014  0.60381562  0.34511172    -1.05200
O2647       O  0.71306794  0.91118287  0.71024211    -0.77800
O2648       O  0.71610114  0.79366368  0.63640341    -0.79400
O2649       O  0.77309639  0.87681202  0.67272081    -0.76400
O2650       O  0.69828832  0.87653929  0.63614237    -0.74800
O2651       O  0.64615962  0.84572166  0.63563930    -0.76600
O2652       O  0.77532444  0.85200381  0.70244967    -0.77500
O2653       O  0.73741595  0.84578067  0.63574348    -0.78800
O2654       O  0.74061158  0.91333404  0.68081321    -0.79100
Eu2655     Eu  0.71915103  0.86110999  0.66635973     2.39200
O2656       O  0.67656828  0.81548640  0.65468452    -0.86600
O2657       O  0.71864209  0.86106460  0.70349350    -0.90200
C2658       C  0.73535575  0.92543212  0.69713173     1.04500
C2659       C  0.73364422  0.82044022  0.62836073     1.04300
C2660       C  0.78756289  0.86971482  0.68631251     1.04200
C2661       C  0.67146705  0.86717801  0.62811057     1.02100
H2662       H  0.73995479  0.81827110  0.67320277     0.31800
O2663       O  0.72208965  0.81834573  0.67848126    -0.99000
H2664       H  0.67408368  0.87618989  0.67316928     0.31900
O2665       O  0.67393041  0.85823814  0.67848775    -1.01500
O2666       O  0.64153938  0.71910192  0.67298386    -0.78800
O2667       O  0.63569898  0.83626738  0.74530663    -0.78300
O2668       O  0.73641586  0.77973704  0.71019807    -0.76700
O2669       O  0.61529061  0.77595558  0.63642474    -0.80100
O2670       O  0.61581482  0.85116033  0.67281570    -0.77900
O2671       O  0.73830764  0.85666064  0.74536375    -0.76600
O2672       O  0.65632117  0.75416176  0.74540081    -0.78100
O2673       O  0.58113635  0.75626465  0.71041652    -0.80000
O2674       O  0.70832340  0.78575926  0.74621733    -0.76800
O2675       O  0.57889493  0.78183191  0.68112631    -0.79500
O2676       O  0.71068352  0.75182233  0.68097937    -0.75200
O2677       O  0.70667011  0.87699961  0.74631185    -0.75200
O2678       O  0.64085537  0.87826189  0.70248440    -0.74900
O2679       O  0.64614752  0.75469648  0.63583870    -0.78400
O2680       O  0.61442073  0.71704608  0.70263491    -0.77800
O2681       O  0.61539653  0.78429356  0.74633648    -0.76100
Eu2682     Eu  0.67967837  0.77301341  0.66651020     2.39800
Eu2683     Eu  0.67300342  0.85773561  0.71576634     2.39600
Eu2684     Eu  0.72264100  0.81949605  0.71574095     2.38400
Eu2685     Eu  0.63102835  0.81251584  0.66649117     2.39900
Eu2686     Eu  0.63466109  0.76978544  0.71584881     2.39800
O2687       O  0.63132474  0.81212006  0.70362122    -0.90500
O2688       O  0.68025489  0.77375914  0.70362919    -0.89400
C2689       C  0.61994249  0.70471621  0.68656843     1.04600
C2690       C  0.61837347  0.80948086  0.75339281     1.03400
C2691       C  0.72832949  0.75735834  0.69716401     1.02800
C2692       C  0.62458488  0.75843920  0.62840156     1.04800
C2693       C  0.62320557  0.87289011  0.68633004     1.03700
C2694       C  0.72880787  0.87396094  0.75344153     1.02500
C2695       C  0.68317371  0.76362964  0.75338731     1.02600
C2696       C  0.56684365  0.76437630  0.69740160     1.05200
H2697       H  0.67680474  0.81570147  0.74325530     0.32600
O2698       O  0.67678220  0.81567858  0.72795977    -1.02700
H2699       H  0.61602606  0.75225572  0.67334056     0.34600
O2700       O  0.63396781  0.77015297  0.67858583    -1.05200
O2701       O  0.69821618  0.77535791  0.13774761    -0.77800
O2702       O  0.58114788  0.78100641  0.21030128    -0.79400
O2703       O  0.61797031  0.72064694  0.17288591    -0.76400
O2704       O  0.61597343  0.79557192  0.13768624    -0.74800
O2705       O  0.64756304  0.84755850  0.13674740    -0.76600
O2706       O  0.64351684  0.71846937  0.20220818    -0.77500
O2707       O  0.57900018  0.75383530  0.18065284    -0.78800
O2708       O  0.64621684  0.75494428  0.13680373    -0.79100
Eu2709     Eu  0.63170232  0.77416041  0.16731247     2.39200
O2710       O  0.63559957  0.81972100  0.17951892    -0.86600
O2711       O  0.67405780  0.77081050  0.17951890    -0.90200
C2712       C  0.67141626  0.75803622  0.12967259     1.04500
C2713       C  0.56674296  0.75932424  0.19678088     1.04300
C2714       C  0.62597505  0.70636203  0.18597778     1.04200
C2715       C  0.62543758  0.82236281  0.12961120     1.02100
H2716       H  0.61431186  0.75566943  0.20981934     0.31800
O2717       O  0.63217362  0.77362229  0.20455699    -0.99000
H2718       H  0.67761377  0.81621096  0.13987044     0.31900
O2719       O  0.67759425  0.81621333  0.15516645    -1.01500
O2720       O  0.65572916  0.85573525  0.24671537    -0.78800
O2721       O  0.77314813  0.85264211  0.17285969    -0.78300
O2722       O  0.63773021  0.75472896  0.24659636    -0.76700
O2723       O  0.64130462  0.87555317  0.17285615    -0.80100
O2724       O  0.71857580  0.87766531  0.13771550    -0.77900
O2725       O  0.71276838  0.75504181  0.21029268    -0.76600
O2726       O  0.73878820  0.83789329  0.24673194    -0.78100
O2727       O  0.73850761  0.91265509  0.21028112    -0.80000
O2728       O  0.70787178  0.78578063  0.24734469    -0.76800
O2729       O  0.71362672  0.91475024  0.18053864    -0.79500
O2730       O  0.61646211  0.78556932  0.24724006    -0.75200
O2731       O  0.74002980  0.78013303  0.18069757    -0.75200
O2732       O  0.73904838  0.84613531  0.13688405    -0.74900
O2733       O  0.61367230  0.85012708  0.20224261    -0.78400
O2734       O  0.70785162  0.87704418  0.24740621    -0.77800
O2735       O  0.77529783  0.88035294  0.20219188    -0.76100
Eu2736     Eu  0.63502270  0.81927419  0.21665772     2.39800
Eu2737     Eu  0.71968974  0.81248486  0.16738532     2.39600
Eu2738     Eu  0.67447152  0.77066987  0.21664962     2.38400
Eu2739     Eu  0.68128858  0.86204049  0.16728971     2.39900
Eu2740     Eu  0.72309389  0.85879294  0.21670324     2.39800
O2741       O  0.72290414  0.85810890  0.17957463    -0.90500
O2742       O  0.67753002  0.81624021  0.22853023    -0.89400
C2743       C  0.68249375  0.87327076  0.25477326     1.04600
C2744       C  0.78739848  0.87501247  0.18591347     1.03400
C2745       C  0.62009819  0.76389783  0.25458782     1.02800
C2746       C  0.61902026  0.86756069  0.18596771     1.04800
C2747       C  0.73597009  0.86821882  0.12971066     1.03700
C2748       C  0.73448286  0.76233001  0.19678968     1.02500
C2749       C  0.72948547  0.81108027  0.25474528     1.02600
C2750       C  0.73127818  0.92702985  0.19670005     1.05200
H2751       H  0.73815773  0.81360875  0.20991962     0.32600
O2752       O  0.72021941  0.81352352  0.20463658    -1.02700
H2753       H  0.68014665  0.87945448  0.20983803     0.34600
O2754       O  0.68027278  0.86161705  0.20456455    -1.05200
O2755       O  0.98860352  0.52192432  0.58051488    -0.77800
O2756       O  0.60570050  0.51843827  0.50644568    -0.79400
O2757       O  0.57195657  0.50443564  0.58021185    -0.76400
O2758       O  0.57143027  0.57881605  0.54382322    -0.74800
O2759       O  0.54620107  0.58082469  0.51426248    -0.76600
O2760       O  0.54125158  0.95230436  0.58095763    -0.77500
O2761       O  0.60793020  0.54629822  0.53571374    -0.78800
O2762       O  0.54071900  0.54315902  0.58105826    -0.79100
Eu2763     Eu  0.55581432  0.52491058  0.55027921     2.39200
O2764       O  0.55548793  0.52408595  0.51316834    -0.86600
O2765       O  0.51036790  0.98237286  0.56223868    -0.90200
C2766       C  0.51542366  0.53942609  0.58851947     1.04500
C2767       C  0.61997898  0.54086673  0.51945157     1.04300
C2768       C  0.56288107  0.97769970  0.58824741     1.04200
C2769       C  0.56411890  0.59318301  0.53029261     1.02100
H2770       H  0.57092761  0.97965830  0.54344038     0.31800
O2771       O  0.55295959  0.97959643  0.53823995    -0.99000
H2772       H  0.51284777  0.54563752  0.54362262     0.31900
O2773       O  0.51292412  0.52777235  0.53834871    -1.01500
O2774       O  0.53052609  0.94133259  0.47130348    -0.78800
O2775       O  0.91380297  0.94693036  0.54424297    -0.78300
O2776       O  0.54545380  0.92095701  0.54387720    -0.76700
O2777       O  0.55103493  0.54374634  0.47147974    -0.80100
O2778       O  0.97346879  0.54106489  0.50651849    -0.77900
O2779       O  0.97107438  0.92130641  0.58067703    -0.76600
O2780       O  0.95089190  0.88666158  0.50671715    -0.78100
O2781       O  0.94829215  0.96159918  0.47170524    -0.80000
O2782       O  0.97649567  0.88455992  0.53603550    -0.76800
O2783       O  0.97993042  0.51358019  0.47067860    -0.79500
O2784       O  0.57237972  0.94579680  0.51411405    -0.75200
O2785       O  0.94978302  0.95213120  0.58129552    -0.75200
O2786       O  0.94591629  0.51563439  0.53592891    -0.74900
O2787       O  0.57151933  0.51223036  0.47050959    -0.78400
O2788       O  0.97851929  0.92088929  0.47053313    -0.77800
O2789       O  0.91157547  0.91980670  0.51455031    -0.76100
Eu2790     Eu  0.55219708  0.97841225  0.50098015     2.39800
Eu2791     Eu  0.96775489  0.98531930  0.55050661     2.39600
Eu2792     Eu  0.50734540  0.93679829  0.55045899     2.38400
Eu2793     Eu  0.51382125  0.52804888  0.50108227     2.39900
Eu2794     Eu  0.96423709  0.94009019  0.50118620     2.39800
O2795       O  0.96828072  0.98568532  0.51339959    -0.90500
O2796       O  0.50666433  0.93685694  0.51332519    -0.89400
C2797       C  0.50368129  0.92401347  0.46328639     1.04600
C2798       C  0.89933612  0.92531132  0.53067672     1.03400
C2799       C  0.56692335  0.92800002  0.53020392     1.02800
C2800       C  0.56845190  0.53437027  0.46342063     1.04800
C2801       C  0.95106784  0.53284996  0.51955667     1.03700
C2802       C  0.95361249  0.93063976  0.58873857     1.02500
C2803       C  0.95903721  0.87244202  0.51976661     1.02600
C2804       C  0.95770271  0.98839206  0.46363606     1.05200
H2805       H  0.94703074  0.92166186  0.54378685     0.32600
O2806       O  0.96486438  0.93959082  0.53846444    -1.02700
H2807       H  0.50997501  0.98216462  0.47363305     0.34600
O2808       O  0.51004402  0.98217211  0.48892739    -1.05200
C2809       C  0.50014891  0.56119477  0.92723647    -0.11000
C2810       C  0.50370912  0.55025537  0.94317882    -0.12500
C2811       C  0.94332726  0.58269992  0.87422471    -0.11000
C2812       C  0.92208278  0.58553645  0.86844726    -0.12500
C2813       C  0.68882921  0.73759953  0.78794475    -0.11000
C2814       C  0.68572519  0.74878908  0.77196888    -0.12500
C2815       C  0.76281233  0.70953984  0.84811747    -0.11000
C2816       C  0.74193580  0.71273683  0.84193574    -0.12500
C2817       C  0.63310090  0.67406701  0.84641739    -0.16200
C2818       C  0.60775517  0.65874383  0.85339820     0.07900
C2819       C  0.57773830  0.64082062  0.86093261     0.09700
C2820       C  0.55258050  0.62517348  0.86812449    -0.17000
C2821       C  0.59954325  0.82773276  0.09486132    -0.11000
C2822       C  0.61061784  0.82475127  0.11094671    -0.12500
C2823       C  0.57105518  0.90191403  0.03525065    -0.11000
C2824       C  0.57439308  0.88101416  0.04119764    -0.12500
C2825       C  0.94409038  0.58257158  0.00963946    -0.11000
C2826       C  0.94716654  0.56148116  0.01543599    -0.12500
C2827       C  0.92110929  0.63803512  0.95643363    -0.11000
C2828       C  0.90996690  0.64134179  0.94049633    -0.12500
C2829       C  0.98874374  0.69226408  0.01364053    -0.16200
C2830       C  0.50506418  0.71752984  0.02048177     0.07900
C2831       C  0.52339461  0.74755192  0.02794536     0.09700
C2832       C  0.53861208  0.77281917  0.03510473    -0.17000
C2833       C  0.57585307  0.87971655  0.17489989    -0.11000
C2834       C  0.59685292  0.87659128  0.18091215    -0.12500
C2835       C  0.52237431  0.90438442  0.12113079    -0.11000
C2836       C  0.51944452  0.91563229  0.10512366    -0.12500
C2837       C  0.83639492  0.71563216  0.27614402    -0.11000
C2838       C  0.83305228  0.72655547  0.26011072    -0.12500
C2839       C  0.77723548  0.74938201  0.20709216    -0.11000
C2840       C  0.75612904  0.75248785  0.20135789    -0.12500
C2841       C  0.96706898  0.84142711  0.18002117    -0.16200
C2842       C  0.94177708  0.82595634  0.18708424     0.07900
C2843       C  0.91178116  0.80770911  0.19462729     0.09700
C2844       C  0.88657865  0.79176719  0.20169620    -0.17000
C2845       C  0.66904447  0.88130983  0.60906903    -0.11000
C2846       C  0.66543527  0.89143380  0.59272321    -0.12500
C2847       C  0.60901767  0.91367930  0.53978487    -0.11000
C2848       C  0.58826979  0.91763757  0.53445513    -0.12500
C2849       C  0.85454836  0.56888990  0.45378932    -0.11000
C2850       C  0.85197287  0.58102481  0.43813096    -0.12500
C2851       C  0.92843847  0.54112421  0.51419480    -0.11000
C2852       C  0.90709858  0.54333151  0.50772312    -0.12500
C2853       C  0.79711598  0.49871673  0.50905930    -0.16200
C2854       C  0.77169403  0.98250141  0.51570211     0.07900
C2855       C  0.74173727  0.96428582  0.52334104     0.09700
C2856       C  0.71673555  0.94916902  0.53093831    -0.17000
C2857       C  0.61153345  0.91636683  0.67577269    -0.11000
C2858       C  0.61388672  0.89488565  0.68164666    -0.12500
C2859       C  0.58929984  0.97244223  0.62271820    -0.11000
C2860       C  0.57782916  0.97553428  0.60688988    -0.12500
C2861       C  0.74113844  0.71460497  0.70816809    -0.11000
C2862       C  0.73760734  0.73537050  0.70219338    -0.12500
C2863       C  0.76556136  0.66115944  0.76214189    -0.11000
C2864       C  0.77641016  0.65798707  0.77826581    -0.12500
C2865       C  0.65741471  0.52626456  0.67981016    -0.16200
C2866       C  0.67356928  0.55148665  0.68677316     0.07900
C2867       C  0.69154290  0.58146461  0.69440151     0.09700
C2868       C  0.70638673  0.60668310  0.70171031    -0.17000
C2869       C  0.90396473  0.56834558  0.36889833    -0.11000
C2870       C  0.90713625  0.54745551  0.37509370    -0.12500
C2871       C  0.93150234  0.99395007  0.42912016    -0.11000
C2872       C  0.94269349  0.99083192  0.44509810    -0.12500
C2873       C  0.77740935  0.74920201  0.34266006    -0.11000
C2874       C  0.78044789  0.72809398  0.34847578    -0.12500
C2875       C  0.75488905  0.80515055  0.28954194    -0.11000
C2876       C  0.74402540  0.80864167  0.27353344    -0.12500
C2877       C  0.81982270  0.85847149  0.34808404    -0.16200
C2878       C  0.83566097  0.88362550  0.35522937     0.07900
C2879       C  0.85372657  0.91355620  0.36288138     0.09700
C2880       C  0.86902655  0.93879532  0.37003962    -0.17000
C2881       C  0.93571526  0.97431092  0.10535501    -0.11000
C2882       C  0.92153738  0.97137487  0.12136477    -0.12500
C2883       C  0.81856623  0.89723544  0.18080364    -0.11000
C2884       C  0.84272717  0.91819014  0.17479310    -0.12500
C2885       C  0.91815971  0.65690340  0.27632174    -0.11000
C2886       C  0.93265080  0.66043725  0.26036837    -0.12500
C2887       C  0.53530061  0.73762300  0.20140999    -0.11000
C2888       C  0.51118970  0.71649842  0.20727178    -0.12500
C2889       C  0.91387371  0.52675450  0.18019371    -0.16200
C2890       C  0.92380478  0.55200912  0.18733026     0.07900
C2891       C  0.93561635  0.58195490  0.19495067     0.09700
C2892       C  0.94484282  0.60711895  0.20205637    -0.17000
C2893       C  0.98598564  0.71257828  0.34833429    -0.11000
C2894       C  0.51015187  0.71567626  0.34248766    -0.12500
C2895       C  0.58851022  0.73805425  0.28925108    -0.11000
C2896       C  0.60292196  0.74910223  0.27327794    -0.12500
C2897       C  0.58588704  0.54941919  0.44488454    -0.11000
C2898       C  0.60032137  0.56094211  0.42900448    -0.12500
C2899       C  0.70279755  0.58920876  0.36910026    -0.11000
C2900       C  0.67881866  0.58623778  0.37531788    -0.12500
C2901       C  0.57811085  0.67462374  0.34853911    -0.16200
C2902       C  0.58760116  0.65906726  0.35593014     0.07900
C2903       C  0.59946551  0.64108872  0.36377220     0.09700
C2904       C  0.60924691  0.62564734  0.37092713    -0.17000
C2905       C  0.84553462  0.91845852  0.04119104    -0.11000
C2906       C  0.86982762  0.92195985  0.03523645    -0.12500
C2907       C  0.76739280  0.89388264  0.09499831    -0.11000
C2908       C  0.75325773  0.88297331  0.11107524    -0.12500
C2909       C  0.75519760  0.57098043  0.95650163    -0.11000
C2910       C  0.76944111  0.58209846  0.94051396    -0.12500
C2911       C  0.65329873  0.54635359  0.01541721    -0.11000
C2912       C  0.67737579  0.54907281  0.00979291    -0.12500
C2913       C  0.77379700  0.95505961  0.03541577    -0.16200
C2914       C  0.76369546  0.97029542  0.02840547     0.07900
C2915       C  0.75175242  0.98845624  0.02109064     0.09700
C2916       C  0.74254306  0.50454995  0.01426445    -0.17000
C2917       C  0.76456035  0.82632491  0.59336308    -0.11000
C2918       C  0.75048450  0.82277907  0.60951934    -0.12500
C2919       C  0.86775489  0.90380093  0.53511340    -0.11000
C2920       C  0.84325999  0.88282847  0.54054340    -0.12500
C2921       C  0.67488772  0.58435742  0.50798502    -0.11000
C2922       C  0.65105626  0.56316967  0.51422579    -0.12500
C2923       C  0.76796157  0.64049984  0.43858847    -0.11000
C2924       C  0.75341031  0.63762999  0.45439452    -0.12500
C2925       C  0.74153643  0.69404594  0.51077180    -0.16200
C2926       C  0.75092591  0.71944321  0.51750814     0.07900
C2927       C  0.76282999  0.74944746  0.52507064     0.09700
C2928       C  0.77269818  0.77453273  0.53250838    -0.17000
C2929       C  0.93319566  0.72746571  0.76230806    -0.11000
C2930       C  0.91885063  0.71605514  0.77822900    -0.12500
C2931       C  0.51172247  0.75258820  0.70872770    -0.11000
C2932       C  0.53571647  0.75549975  0.70259413    -0.12500
C2933       C  0.81912462  0.87974232  0.68185147    -0.11000
C2934       C  0.84351251  0.88308806  0.67632052    -0.12500
C2935       C  0.92266441  0.90571842  0.62374536    -0.11000
C2936       C  0.93687067  0.91630871  0.60764437    -0.12500
C2937       C  0.91177889  0.84244610  0.68313830    -0.16200
C2938       C  0.92126712  0.82676143  0.69030316     0.07900
C2939       C  0.93316438  0.80861709  0.69775767     0.09700
C2940       C  0.94288403  0.79296594  0.70462212    -0.17000
C2941       C  0.70088404  0.57080329  0.86791202    -0.11000
C2942       C  0.67657733  0.54963150  0.87337817    -0.12500
C2943       C  0.59812660  0.99339257  0.92624129    -0.11000
C2944       C  0.58411497  0.99012904  0.94237279    -0.12500
C2945       C  0.50826953  0.75074476  0.84157748    -0.11000
C2946       C  0.98422344  0.72973953  0.84769109    -0.12500
C2947       C  0.60097012  0.80706453  0.77193982    -0.11000
C2948       C  0.58661665  0.80405186  0.78787147    -0.12500
C2949       C  0.57853956  0.85958551  0.84637957    -0.16200
C2950       C  0.58856884  0.88496830  0.85329762     0.07900
C2951       C  0.60059541  0.91506663  0.86065472     0.09700
C2952       C  0.60995656  0.94031606  0.86763823    -0.17000
C2953       C  0.77693902  0.57516150  0.27625612    -0.11000
C2954       C  0.76586224  0.56073371  0.26030807    -0.12500
C2955       C  0.74089857  0.95845083  0.20128824    -0.11000
C2956       C  0.74366366  0.98248655  0.20710641    -0.12500
C2957       C  0.58964594  0.57313905  0.12097655    -0.11000
C2958       C  0.57850767  0.55884300  0.10499089    -0.12500
C2959       C  0.61358756  0.65098084  0.17490965    -0.11000
C2960       C  0.61681140  0.67513382  0.18093947    -0.12500
C2961       C  0.69982471  0.54820638  0.20230113    -0.16200
C2962       C  0.68396811  0.55757928  0.19528601     0.07900
C2963       C  0.66607355  0.56969291  0.18773403     0.09700
C2964       C  0.65100091  0.57988104  0.18056576    -0.17000
C2965       C  0.74345260  0.98280534  0.34267995    -0.11000
C2966       C  0.76472574  0.50692115  0.34838007    -0.12500
C2967       C  0.68472758  0.89015205  0.27356919    -0.11000
C2968       C  0.68782079  0.90440343  0.28956749    -0.12500
C2969       C  0.49816650  0.89292497  0.42841340    -0.11000
C2970       C  0.50118785  0.90689934  0.44454784    -0.12500
C2971       C  0.94497707  0.81469533  0.37460050    -0.11000
C2972       C  0.92416078  0.79038724  0.36867381    -0.12500
C2973       C  0.55339341  0.88643510  0.36902135    -0.16200
C2974       C  0.57866369  0.89630812  0.36190315     0.07900
C2975       C  0.60864349  0.90790847  0.35436406     0.09700
C2976       C  0.63385484  0.91692442  0.34738471    -0.17000
C2977       C  0.59169637  0.62400850  0.03537100    -0.11000
C2978       C  0.61273063  0.64803986  0.04147083    -0.12500
C2979       C  0.66900156  0.74077964  0.11104813    -0.11000
C2980       C  0.66603512  0.72643591  0.09512084    -0.12500
C2981       C  0.85482305  0.73700303  0.95694108    -0.11000
C2982       C  0.85107276  0.72280787  0.94081368    -0.12500
C2983       C  0.91146494  0.81604629  0.00956994    -0.11000
C2984       C  0.93245765  0.84051656  0.01501952    -0.12500
C2985       C  0.80299594  0.74623237  0.01729656    -0.16200
C2986       C  0.77780081  0.73658752  0.02445944     0.07900
C2987       C  0.74767662  0.72482814  0.03168528     0.09700
C2988       C  0.72221299  0.71545054  0.03825858    -0.17000
C2989       C  0.59987041  0.72771929  0.59324639    -0.11000
C2990       C  0.61021874  0.74165510  0.60948991    -0.12500
C2991       C  0.57422351  0.62478602  0.53468752    -0.11000
C2992       C  0.57785474  0.64931307  0.54015096    -0.12500
C2993       C  0.95029145  0.84136015  0.51456110    -0.11000
C2994       C  0.94766037  0.81755752  0.50825729    -0.12500
C2995       C  0.91089212  0.72463821  0.43870446    -0.11000
C2996       C  0.92253328  0.73919107  0.45451737    -0.12500
C2997       C  0.99135087  0.75147524  0.51057020    -0.16200
C2998       C  0.50750295  0.74218927  0.51717423     0.07900
C2999       C  0.52570980  0.73035422  0.52461667     0.09700
C3000       C  0.54092213  0.72046966  0.53202214    -0.17000
C3001       C  0.90682528  0.79125574  0.86856033    -0.11000
C3002       C  0.90972112  0.81539688  0.87426493    -0.12500
C3003       C  0.93286223  0.89458180  0.92690148    -0.11000
C3004       C  0.94410228  0.90911524  0.94279139    -0.12500
C3005       C  0.75466156  0.90528440  0.78816882    -0.11000
C3006       C  0.74359887  0.89118239  0.77209986    -0.12500
C3007       C  0.78289711  0.50796973  0.84772221    -0.11000
C3008       C  0.77961406  0.98375879  0.84176147    -0.12500
C3009       C  0.81613782  0.91192337  0.84771535    -0.16200
C3010       C  0.83137291  0.90188983  0.85486184     0.07900
C3011       C  0.84958470  0.89009183  0.86237756     0.09700
C3012       C  0.86572550  0.88100537  0.86933592    -0.17000
C3013       C  0.59844322  0.67313106  0.68217188    -0.11000
C3014       C  0.57745862  0.64871778  0.67663043    -0.12500
C3015       C  0.52124946  0.57027765  0.62357259    -0.11000
C3016       C  0.51783300  0.55623745  0.60740792    -0.12500
C3017       C  0.75767100  0.95654828  0.70228455    -0.11000
C3018       C  0.77876633  0.98048365  0.70848735    -0.12500
C3019       C  0.83451866  0.57323145  0.77816667    -0.11000
C3020       C  0.83165950  0.55881601  0.76228872    -0.12500
C3021       C  0.96868991  0.57975961  0.68352266    -0.16200
C3022       C  0.94356208  0.57022459  0.69080634     0.07900
C3023       C  0.91354796  0.55844085  0.69832258     0.09700
C3024       C  0.88815152  0.54886147  0.70512276    -0.17000
loop_ 
_geom_bond_atom_site_label_1 
_geom_bond_atom_site_label_2 
_geom_bond_distance 
_geom_bond_site_symmetry_2 
_ccdc_geom_bond_type 
C1            N2   1.359       .  A
C1            N6   1.363       .  A
C1         C1506   1.443   1_545  S
N2            C3   1.357       .  A
C3            N4   1.351       .  A
C3          C756   1.430       .  S
N4            C5   1.351       .  A
C5            N6   1.362       .  A
C5          C752   1.434       .  S
C7            N8   1.362       .  A
C7           N12   1.359       .  A
C7          C746   1.441       .  S
N8            C9   1.362       .  A
C9           N10   1.352   1_455  A
C9          C747   1.435       .  S
N10        C1523   1.351       .  A
C11        N1522   1.351       .  A
C11        N1524   1.357       .  A
C11         C753   1.429       .  S
N12        C1523   1.357   1_455  A
C13          N14   1.363       .  A
C13          N18   1.359       .  A
C13         C740   1.443       .  S
N14          C15   1.362       .  A
C15          N16   1.351       .  A
C15         C737   1.434       .  S
N16          C17   1.351       .  A
C17          N18   1.357       .  A
C17         C741   1.430       .  S
C19          N20   1.359       .  A
C19          N24   1.362       .  A
C19         C734   1.442       .  S
N20          C21   1.357       .  A
C21          N22   1.351       .  A
C21         C744   1.429       .  S
N22          C23   1.351       .  A
C23          N24   1.362       .  A
C23         C735   1.434       .  S
C25          N26   1.359       .  A
C25          N30   1.363       .  A
C25         C726   1.443       .  S
N26          C27   1.357       .  A
C27          N28   1.351       .  A
C27         C729   1.429       .  S
N28          C29   1.351       .  A
C29          N30   1.362       .  A
C29         C728   1.434       .  S
C31          N32   1.363       .  A
C31          N36   1.359       .  A
C31         C724   1.442       .  S
N32          C33   1.362       .  A
C33          N34   1.351       .  A
C33         C721   1.435       .  S
N34          C35   1.351       .  A
C35          N36   1.357       .  A
C35         C732   1.429       .  S
C37          N38   1.363   1_554  A
C37          N42   1.359       .  A
C37         C715   1.441       .  S
N38          C39   1.362       .  A
C39          N40   1.351       .  A
C39         C713   1.434       .  S
N40          C41   1.351   1_556  A
C41          N42   1.357       .  A
C41         C717   1.428       .  S
C43          N44   1.363       .  A
C43          N48   1.359       .  A
C43         C710   1.442       .  S
N44          C45   1.361       .  A
C45          N46   1.351       .  A
C45         C712   1.433       .  S
N46          C47   1.351       .  A
C47          N48   1.357       .  A
C47         C720   1.428       .  S
C49          N50   1.363       .  A
C49          N54   1.359       .  A
C49         C703   1.443       .  S
N50          C51   1.362       .  A
C51        N1564   1.352       .  A
C51        C2213   1.434       .  S
N52          C53   1.351       .  A
N52        C1563   1.352   1_455  A
C53        N1566   1.357   1_455  A
C53         C705   1.430       .  S
N54        C1565   1.357       .  A
C55          N56   1.359       .  A
C55          N60   1.362       .  A
C55         C697   1.441       .  S
N56          C57   1.357       .  A
C57          N58   1.351       .  A
C57         C708   1.430       .  S
N58          C59   1.352       .  A
C59          N60   1.361       .  A
C59         C700   1.434       .  S
C61          N62   1.363       .  A
C61          N66   1.359       .  A
C61         C691   1.442       .  S
N62          C63   1.362       .  A
C63          N64   1.351       .  A
C63         C689   1.434       .  S
N64          C65   1.351       .  A
C65          N66   1.357       .  A
C65         C696   1.428       .  S
C67          N68   1.359       .  A
C67          N72   1.362       .  A
C67        C1444   1.441   1_545  S
N68          C69   1.357       .  A
C69          N70   1.351       .  A
C69         C693   1.428       .  S
N70          C71   1.351       .  A
C71          N72   1.361       .  A
C71         C686   1.434       .  S
C73          N74   1.363       .  A
C73          N78   1.359       .  A
C73         C677   1.442       .  S
N74          C75   1.362       .  A
C75          N76   1.351       .  A
C75         C680   1.434       .  S
N76          C77   1.351       .  A
C77          N78   1.357       .  A
C77         C681   1.428       .  S
C79          N80   1.362       .  A
C79         N840   1.359   1_545  A
C79         C674   1.440       .  S
N80          C81   1.361   1_545  A
C81         N838   1.351       .  A
C81        C1431   1.433       .  S
N82          C83   1.351       .  A
N82         C837   1.351       .  A
C83          N84   1.357       .  A
C83         C684   1.428       .  S
N84         C835   1.359       .  A
C85          N86   1.363       .  A
C85          N90   1.359       .  A
C85         C666   1.441       .  S
N86          C87   1.362       .  A
C87          N88   1.351       .  A
C87         C667   1.434       .  S
N88          C89   1.351       .  A
C89          N90   1.357       .  A
C89         C669   1.429       .  S
C91          N92   1.359       .  A
C91          N96   1.363       .  A
C91        C2175   1.443       .  S
N92          C93   1.357       .  A
C93          N94   1.351       .  A
C93         C672   1.429       .  S
N94          C95   1.351       .  A
C95          N96   1.362       .  A
C95         C661   1.434       .  S
C97          N98   1.363       .  A
C97         N102   1.359       .  A
C97         C653   1.442       .  S
N98          C99   1.362       .  A
C99         N100   1.351       .  A
C99         C656   1.434       .  S
N100        C101   1.351       .  A
C101        N102   1.357       .  A
C101        C657   1.430       .  S
C103        N104   1.359       .  A
C103        N108   1.362       .  A
C103        C652   1.442       .  S
N104        C105   1.357       .  A
C105        N106   1.351       .  A
C105        C660   1.429       .  S
N106        C107   1.351       .  A
C107        N108   1.361       .  A
C107        C649   1.434       .  S
C109        N110   1.359       .  A
C109        N114   1.361   1_554  A
C109        C644   1.440       .  S
N110        C111   1.357       .  A
C111        N112   1.351   1_554  A
C111        C648   1.428       .  S
N112        C113   1.351       .  A
C113        N114   1.360       .  A
C113        C641   1.432       .  S
C115        N116   1.363       .  A
C115        N120   1.359       .  A
C115        C637   1.442       .  S
N116        C117   1.362       .  A
C117        N118   1.351       .  A
C117        C639   1.434       .  S
N118        C119   1.351       .  A
C119        N120   1.357       .  A
C119        C645   1.429       .  S
C121        N122   1.363       .  A
C121        N126   1.359       .  A
C121        C632   1.443       .  S
N122        C123   1.362       .  A
C123        N124   1.352       .  A
C123        C630   1.434       .  S
N124        C125   1.351       .  A
C125        N126   1.357       .  A
C125        C636   1.429       .  S
C127        N128   1.363       .  A
C127        N132   1.358       .  A
C127        C626   1.441       .  S
N128        C129   1.362       .  A
C129        N130   1.352       .  A
C129        C627   1.435       .  S
N130        C131   1.351       .  A
C131        N132   1.356       .  A
C131        C633   1.429       .  S
C133        N134   1.359       .  A
C133        N138   1.363       .  A
C133       C2132   1.441       .  S
N134        C135   1.356       .  A
C135        N136   1.351       .  A
C135        C624   1.428       .  S
N136        C137   1.351       .  A
C137        N138   1.362       .  A
C137        C618   1.434       .  S
C139        N140   1.359       .  A
C139        N144   1.363       .  A
C139        C616   1.443       .  S
N140        C141   1.357       .  A
C141        N142   1.351       .  A
C141       C1377   1.429       .  S
N142        C143   1.351       .  A
C143        N144   1.362       .  A
C143        C614   1.434       .  S
C145        N146   1.359       .  A
C145        N150   1.363       .  A
C145        C605   1.441       .  S
N146        C147   1.356       .  A
C147        N148   1.351       .  A
C147        C609   1.428       .  S
N148        C149   1.351       .  A
C149        N150   1.362       .  A
C149        C607   1.434       .  S
C151        N156   1.363       .  A
C151        N908   1.359   1_545  A
C151        C602   1.443       .  S
N152        C153   1.357       .  A
N152        C907   1.359       .  A
C153        N154   1.351       .  A
C153        C612   1.428       .  S
N154        C911   1.351       .  A
C155        N156   1.362   1_565  A
C155        N910   1.351       .  A
C155       C1359   1.435       .  S
C157        N158   1.359       .  A
C157        N162   1.363       .  A
C157        C593   1.443       .  S
N158        C159   1.357       .  A
C159        N160   1.351       .  A
C159        C600   1.429       .  S
N160        C161   1.351       .  A
C161        N162   1.362       .  A
C161        C595   1.434       .  S
C163        N164   1.359       .  A
C163        N168   1.362       .  A
C163        C589   1.441       .  S
N164        C165   1.357       .  A
C165        N166   1.351       .  A
C165       C1353   1.429       .  S
N166        C167   1.351       .  A
C167        N168   1.361       .  A
C167        C591   1.433       .  S
C169        N170   1.362       .  A
C169        N174   1.359       .  A
C169        C584   1.443       .  S
N170        C171   1.361       .  A
C171        N172   1.352       .  A
C171        C581   1.434       .  S
N172        C173   1.351       .  A
C173        N174   1.357       .  A
C173        C585   1.430   1_545  S
C175        N176   1.359       .  A
C175        N180   1.363       .  A
C175        C579   1.443       .  S
N176        C177   1.357       .  A
C177        N178   1.352       .  A
C177        C588   1.430       .  S
N178        C179   1.352       .  A
C179        N180   1.362       .  A
C179        C578   1.436       .  S
C181        N182   1.359       .  A
C181        N186   1.363       .  A
C181        C571   1.442       .  S
N182        C183   1.357       .  A
C183        N184   1.351       .  A
C183        C576   1.429       .  S
N184        C185   1.351       .  A
C185        N186   1.362       .  A
C185        C570   1.434       .  S
C187        N188   1.359       .  A
C187        N192   1.363       .  A
C187        C565   1.443       .  S
N188       C1701   1.357   1_455  A
C189       N1700   1.357       .  A
C189       N1702   1.351       .  A
C189        C573   1.430       .  S
N190        C191   1.352   1_655  A
N190       C1701   1.351       .  A
C191        N192   1.362       .  A
C191        C567   1.434       .  S
C193        N194   1.359       .  A
C193        N198   1.363   1_554  A
C193        C557   1.441       .  S
N194        C195   1.356       .  A
C195        N196   1.351   1_554  A
C195        C561   1.429       .  S
N196        C197   1.351       .  A
C197        N198   1.362       .  A
C197        C559   1.435       .  S
C199        N200   1.359       .  A
C199        N204   1.363       .  A
C199        C556   1.443       .  S
N200        C201   1.357       .  A
C201        N202   1.351       .  A
C201        C564   1.429       .  S
N202        C203   1.352       .  A
C203        N204   1.362       .  A
C203        C553   1.435       .  S
C205        N206   1.363       .  A
C205        N210   1.359       .  A
C205        C548   1.442       .  S
N206        C207   1.362       .  A
C207        N208   1.351       .  A
C207        C545   1.434       .  S
N208        C209   1.351       .  A
C209        N210   1.357       .  A
C209        C549   1.428       .  S
C211        N212   1.359       .  A
C211        N216   1.363       .  A
C211        C543   1.441       .  S
N212       C1725   1.356       .  A
C213        N214   1.351       .  A
C213       N1724   1.356   1_455  A
C213        C552   1.428       .  S
N214       C1727   1.351   1_455  A
C215        N216   1.362       .  A
C215       N1726   1.351       .  A
C215       C2053   1.434       .  S
O217        C228   1.295       .  A
O217       Eu253   2.484       .  S
O218        C229   1.290       .  A
O218       Eu252   2.463       .  S
O219        C230   1.290       .  A
O219       Eu225   2.461       .  S
O220        C231   1.295       .  A
O220       Eu225   2.484       .  S
O221        C231   1.285       .  A
O221       Eu255   2.430       .  S
O222        C230   1.292       .  A
O222       Eu254   2.472       .  S
O223        C229   1.292       .  A
O223       Eu225   2.471       .  S
O224        C228   1.285       .  A
O224       Eu225   2.431       .  S
Eu225       O235   2.357       .  S
Eu225       O227   2.359       .  S
Eu225       O226   2.342       .  S
Eu225       O233   2.355       .  S
O226       Eu255   2.358       .  S
O226       Eu252   2.346       .  S
O227       Eu253   2.341       .  S
O227       Eu254   2.345       .  S
C228        C751   1.434       .  S
C229        C673   1.438       .  S
C230        C739   1.442       .  S
C231        C596   1.433       .  S
H232        O233   0.965       .  S
O233       Eu254   2.347       .  S
O233       Eu252   2.368       .  S
H234        O235   0.966       .  S
O235       Eu253   2.358       .  S
O235       Eu255   2.358       .  S
O236        C259   1.295       .  A
O236       Eu252   2.488       .  S
O237        C260   1.289       .  A
O237       Eu253   2.459       .  S
O238        C261   1.294       .  A
O238       Eu254   2.482       .  S
O239        C262   1.289       .  A
O239       Eu255   2.459       .  S
O240        C263   1.295       .  A
O240       Eu255   2.483       .  S
O241        C264   1.290       .  A
O241       Eu254   2.461       .  S
O242        C265   1.295       .  A
O242       Eu256   2.486       .  S
O243        C266   1.290       .  A
O243       Eu256   2.463       .  S
O244        C265   1.285       .  A
O244       Eu254   2.432       .  S
O245        C266   1.292       .  A
O245       Eu255   2.473       .  S
O246        C261   1.285       .  A
O246       Eu252   2.432       .  S
O247        C264   1.293       .  A
O247       Eu253   2.475       .  S
O248        C263   1.285       .  A
O248       Eu253   2.431       .  S
O249        C262   1.292       .  A
O249       Eu252   2.473       .  S
O250        C259   1.285       .  A
O250       Eu256   2.429       .  S
O251        C260   1.292       .  A
O251       Eu256   2.473       .  S
Eu252       O270   2.346       .  S
Eu252       O258   2.352       .  S
Eu253       O257   2.360       .  S
Eu253       O268   2.354       .  S
Eu254       O268   2.367       .  S
Eu254       O258   2.352       .  S
Eu255       O257   2.341       .  S
Eu255       O270   2.354       .  S
Eu256       O257   2.345       .  S
Eu256       O268   2.346       .  S
Eu256       O270   2.367       .  S
Eu256       O258   2.353       .  S
C259        C714   1.434       .  S
C260        C678   1.441       .  S
C261        C642   1.432       .  S
C262        C547   1.441       .  S
C263        C662   1.433       .  S
C264        C544   1.439       .  S
C265        C560   1.434       .  S
C266        C733   1.440       .  S
H267        O268   0.964       .  S
H269        O270   0.964       .  S
O271        C282   1.295       .  A
O271       Eu307   2.485       .  S
O272        C283   1.290       .  A
O272       Eu306   2.461       .  S
O273        C284   1.294       .  A
O273       Eu279   2.482       .  S
O274        C285   1.290       .  A
O274      Eu1791   2.462   1_554  S
O275        C285   1.292       .  A
O275       Eu309   2.475       .  S
O276        C284   1.285       .  A
O276      Eu1064   2.432       .  S
O277        C283   1.292       .  A
O277       Eu279   2.473   1_554  S
O278        C282   1.285       .  A
O278      Eu1791   2.432       .  S
Eu279      O1786   2.462   1_456  S
Eu279      O1790   2.432   1_455  S
Eu279       O281   2.352       .  S
Eu279       O280   2.345   1_556  S
Eu279       O287   2.347   1_556  S
Eu279      O1801   2.366   1_456  S
O280       Eu306   2.358       .  S
O280      Eu1821   2.341   1_455  S
O281      Eu1819   2.352   1_455  S
O281      Eu1064   2.352       .  S
C282        C736   1.434       .  S
C283        C555   1.442       .  S
C284        C676   1.432       .  S
C285        C716   1.440       .  S
H286        O287   0.965       .  S
O287       Eu306   2.356       .  S
O287      Eu1064   2.368   1_554  S
H288        O289   0.965       .  S
O289       Eu307   2.346   1_554  S
O289       Eu309   2.354       .  S
O289      Eu1791   2.366   1_554  S
O290        C313   1.295       .  A
O290      Eu1062   2.484   1_545  S
O291        C314   1.290       .  A
O291      Eu1063   2.461   1_544  S
O292        C315   1.290       .  A
O292       Eu308   2.464   1_554  S
O293       C1828   1.294       .  A
O293       Eu309   2.483       .  S
O294        C317   1.289       .  A
O294       Eu309   2.458       .  S
O295        C318   1.295       .  A
O295       Eu308   2.486       .  S
O296        C319   1.290       .  A
O296       Eu310   2.460       .  S
O297       C1076   1.294   1_545  A
O297      Eu1822   2.483       .  S
O298        C319   1.292       .  A
O298       Eu308   2.471   1_554  S
O299        C320   1.285       .  A
O299       Eu309   2.431       .  S
O300       C1071   1.291       .  A
O300       Eu306   2.469       .  S
O301       C1830   1.285       .  A
O301      Eu1063   2.432   1_545  S
O302        C317   1.292       .  A
O302       Eu307   2.473   1_554  S
O303        C316   1.285       .  A
O303       Eu306   2.432       .  S
O304        C313   1.285       .  A
O304       Eu310   2.430       .  S
O305        C314   1.292       .  A
O305      Eu1822   2.474       .  S
Eu306      O1046   2.484       .  S
Eu306       O324   2.357       .  S
Eu306      O1068   2.342       .  S
Eu307      O1047   2.461   1_556  S
Eu307      O1057   2.432       .  S
Eu307       O311   2.346   1_556  S
Eu307      O1793   2.352       .  S
Eu307      O2590   2.367   1_556  S
Eu308      O1032   2.432       .  S
Eu308       O322   2.347   1_556  S
Eu308       O312   2.345   1_556  S
Eu308      O1037   2.352   1_545  S
Eu308      O1043   2.368   1_546  S
Eu309       O311   2.360       .  S
Eu309      O1792   2.341       .  S
Eu309      O1836   2.358       .  S
Eu310      O1809   2.483   1_455  S
Eu310      O1817   2.474   1_455  S
Eu310       O322   2.353       .  S
Eu310       O312   2.359       .  S
Eu310      O2579   2.342   1_445  S
Eu310      O1080   2.358   1_545  S
O311      Eu2578   2.342       .  S
O312      Eu1062   2.342   1_545  S
C313        C690   1.433       .  S
C314        C558   1.439       .  S
C315        C643   1.438       .  S
C315       O1056   1.291       .  A
C316        C568   1.434       .  S
C316       O1805   1.294   1_455  A
C317        C638   1.441       .  S
C318        C542   1.434       .  S
C318       O1813   1.285   1_455  A
C319        C709   1.441       .  S
C320        C613   1.433       .  S
C320       O1053   1.294       .  A
H321        O322   0.964       .  S
O322      Eu2575   2.367   1_444  S
H323        O324   0.966       .  S
O324      Eu1821   2.358   1_455  S
O324      Eu1066   2.358       .  S
O325        C336   1.295       .  A
O325       Eu361   2.484       .  S
O326        C337   1.290       .  A
O326       Eu360   2.462       .  S
O327        C338   1.289       .  A
O327       Eu333   2.460       .  S
O328        C339   1.295       .  A
O328       Eu333   2.484       .  S
O329        C339   1.285       .  A
O329       Eu363   2.432       .  S
O330        C338   1.292       .  A
O330       Eu362   2.473       .  S
O331        C337   1.293       .  A
O331       Eu333   2.475       .  S
O332        C336   1.285       .  A
O332       Eu333   2.431       .  S
Eu333       O343   2.359       .  S
Eu333       O335   2.360       .  S
Eu333       O334   2.342       .  S
Eu333       O341   2.354       .  S
O334       Eu363   2.359       .  S
O334       Eu360   2.346       .  S
O335       Eu361   2.343       .  S
O335       Eu362   2.347       .  S
C336        C727   1.433       .  S
C337        C606   1.440       .  S
C338        C704   1.442       .  S
C339        C655   1.434       .  S
H340        O341   0.964       .  S
O341       Eu362   2.344       .  S
O341       Eu360   2.367       .  S
H342        O343   0.966       .  S
O343       Eu361   2.358       .  S
O343       Eu363   2.358       .  S
O344        C367   1.295       .  A
O344       Eu360   2.485       .  S
O345        C368   1.289       .  A
O345       Eu361   2.458       .  S
O346        C369   1.295       .  A
O346       Eu362   2.486       .  S
O347        C370   1.289       .  A
O347       Eu363   2.459       .  S
O348        C371   1.294       .  A
O348       Eu363   2.481       .  S
O349        C372   1.290       .  A
O349       Eu362   2.461       .  S
O350        C373   1.295       .  A
O350       Eu364   2.488       .  S
O351        C374   1.290       .  A
O351       Eu364   2.464       .  S
O352        C373   1.285       .  A
O352       Eu362   2.430       .  S
O353        C374   1.292       .  A
O353       Eu363   2.472       .  S
O354        C369   1.285       .  A
O354       Eu360   2.431       .  S
O355        C372   1.293       .  A
O355       Eu361   2.475       .  S
O356        C371   1.285       .  A
O356       Eu361   2.434       .  S
O357        C370   1.292       .  A
O357       Eu360   2.473       .  S
O358        C367   1.285       .  A
O358       Eu364   2.431       .  S
O359        C368   1.293       .  A
O359       Eu364   2.475       .  S
Eu360       O378   2.345       .  S
Eu360       O366   2.353       .  S
Eu361       O365   2.359       .  S
Eu361       O376   2.355       .  S
Eu362       O376   2.368       .  S
Eu362       O366   2.353       .  S
Eu363       O365   2.342       .  S
Eu363       O378   2.354       .  S
Eu364       O365   2.346       .  S
Eu364       O376   2.346       .  S
Eu364       O378   2.368       .  S
Eu364       O366   2.353       .  S
C367        C685   1.433       .  S
C368        C601   1.441       .  S
C369        C569   1.434       .  S
C370        C631   1.441       .  S
C371        C582   1.434       .  S
C372        C625   1.440       .  S
C373        C617   1.434       .  S
C374        C698   1.439       .  S
H375        O376   0.964       .  S
H377        O378   0.964       .  S
O379        C390   1.289       .  A
O379       Eu415   2.460       .  S
O380        C391   1.295       .  A
O380       Eu414   2.485       .  S
O381        C392   1.290       .  A
O381       Eu387   2.462       .  S
O382        C393   1.295       .  A
O382       Eu387   2.488       .  S
O383        C393   1.285       .  A
O383       Eu417   2.433       .  S
O384        C392   1.292       .  A
O384       Eu416   2.474       .  S
O385        C391   1.285       .  A
O385       Eu387   2.431       .  S
O386        C390   1.292       .  A
O386       Eu387   2.473       .  S
Eu387       O397   2.346       .  S
Eu387       O389   2.346       .  S
Eu387       O388   2.352       .  S
Eu387       O395   2.368       .  S
O388       Eu417   2.352       .  S
O388       Eu414   2.352       .  S
O389       Eu415   2.359       .  S
O389       Eu416   2.341       .  S
C390        C749   1.442       .  S
C391        C650   1.433       .  S
C392        C665   1.440       .  S
C393        C577   1.436       .  S
H394        O395   0.964       .  S
O395       Eu416   2.355       .  S
O395       Eu414   2.347       .  S
H396        O397   0.964       .  S
O397       Eu415   2.356       .  S
O397       Eu417   2.368       .  S
O398        C421   1.290       .  A
O398       Eu414   2.461       .  S
O399        C422   1.295       .  A
O399       Eu415   2.484       .  S
O400        C423   1.289       .  A
O400       Eu416   2.459       .  S
O401        C424   1.295       .  A
O401       Eu417   2.487       .  S
O402        C425   1.290       .  A
O402       Eu417   2.464       .  S
O403        C426   1.295       .  A
O403       Eu416   2.484       .  S
O404        C427   1.295       .  A
O404       Eu418   2.485       .  S
O405        C428   1.290       .  A
O405       Eu418   2.461       .  S
O406        C427   1.285       .  A
O406       Eu416   2.431       .  S
O407        C428   1.292       .  A
O407       Eu417   2.473       .  S
O408        C423   1.292       .  A
O408       Eu414   2.474       .  S
O409        C426   1.285       .  A
O409       Eu415   2.431       .  S
O410        C425   1.292       .  A
O410       Eu415   2.472       .  S
O411        C424   1.285       .  A
O411       Eu414   2.432       .  S
O412        C421   1.292       .  A
O412       Eu418   2.475       .  S
O413        C422   1.285       .  A
O413       Eu418   2.431       .  S
Eu414       O432   2.368       .  S
Eu414       O420   2.345       .  S
Eu415       O419   2.342       .  S
Eu415       O430   2.358       .  S
Eu416       O430   2.358       .  S
Eu416       O420   2.360       .  S
Eu417       O419   2.346       .  S
Eu417       O432   2.348       .  S
Eu418       O419   2.360       .  S
Eu418       O430   2.358       .  S
Eu418       O432   2.355       .  S
Eu418       O420   2.342       .  S
C421        C745   1.440       .  S
C422        C679   1.433       .  S
C423        C594   1.442       .  S
C424        C722   1.435       .  S
C425        C590   1.439       .  S
C426        C738   1.434       .  S
C427        C546   1.434       .  S
C428        C664   1.442       .  S
H429        O430   0.966       .  S
H431        O432   0.965       .  S
O433        C444   1.295       .  A
O433       Eu469   2.484       .  S
O434        C445   1.290       .  A
O434       Eu468   2.460       .  S
O435        C446   1.289       .  A
O435       Eu441   2.459       .  S
O436        C447   1.295       .  A
O436       Eu441   2.484       .  S
O437        C447   1.285       .  A
O437       Eu471   2.433       .  S
O438        C446   1.292       .  A
O438       Eu470   2.473       .  S
O439        C445   1.293       .  A
O439       Eu441   2.475       .  S
O440        C444   1.285       .  A
O440       Eu441   2.431       .  S
Eu441       O451   2.358       .  S
Eu441       O443   2.360       .  S
Eu441       O442   2.342       .  S
Eu441       O449   2.354       .  S
O442       Eu471   2.359       .  S
O442       Eu468   2.347       .  S
O443       Eu469   2.343       .  S
O443       Eu470   2.346       .  S
C444        C711   1.433       .  S
C445        C619   1.439       .  S
C446        C692   1.441       .  S
C447        C554   1.434       .  S
H448        O449   0.964       .  S
O449       Eu470   2.345       .  S
O449       Eu468   2.366       .  S
H450        O451   0.966       .  S
O451       Eu469   2.358       .  S
O451       Eu471   2.357       .  S
O452        C475   1.295       .  A
O452       Eu468   2.484       .  S
O453        C476   1.290       .  A
O453       Eu469   2.461       .  S
O454        C477   1.295       .  A
O454       Eu470   2.486       .  S
O455        C478   1.290       .  A
O455       Eu471   2.461       .  S
O456        C479   1.295       .  A
O456       Eu471   2.486       .  S
O457        C480   1.290       .  A
O457       Eu470   2.462       .  S
O458        C481   1.295       .  A
O458       Eu472   2.487       .  S
O459        C482   1.290       .  A
O459       Eu472   2.463       .  S
O460        C481   1.285       .  A
O460       Eu470   2.430       .  S
O461        C482   1.292       .  A
O461       Eu471   2.473       .  S
O462        C477   1.285       .  A
O462       Eu468   2.433       .  S
O463        C480   1.292       .  A
O463       Eu469   2.475       .  S
O464        C479   1.285       .  A
O464       Eu469   2.429       .  S
O465        C478   1.292       .  A
O465       Eu468   2.472       .  S
O466        C475   1.285       .  A
O466       Eu472   2.433       .  S
O467        C476   1.292       .  A
O467       Eu472   2.473       .  S
Eu468       O486   2.346       .  S
Eu468       O474   2.352       .  S
Eu469       O473   2.359       .  S
Eu469       O484   2.354       .  S
Eu470       O484   2.368       .  S
Eu470       O474   2.353       .  S
Eu471       O473   2.342       .  S
Eu471       O486   2.355       .  S
Eu472       O473   2.346       .  S
Eu472       O484   2.347       .  S
Eu472       O486   2.367       .  S
Eu472       O474   2.353       .  S
C475        C699   1.433       .  S
C476        C615   1.442       .  S
C477        C628   1.435       .  S
C478        C566   1.442       .  S
C479        C640   1.433       .  S
C480        C572   1.440       .  S
C481        C608   1.434       .  S
C482        C687   1.439       .  S
H483        O484   0.964       .  S
H485        O486   0.964       .  S
O487       C2010   1.295       .  A
O487      Eu1279   2.486   1_545  S
O488        C499   1.290       .  A
O488      Eu1278   2.461   1_545  S
O489       C1256   1.294   1_545  A
O489       Eu495   2.482       .  S
O490        C501   1.290       .  A
O490       Eu495   2.463       .  S
O491        C501   1.292       .  A
O491       Eu525   2.474       .  S
O492        C500   1.285       .  A
O492       Eu524   2.433       .  S
O493        C499   1.292       .  A
O493       Eu495   2.471       .  S
O494        C498   1.285       .  A
O494       Eu495   2.433       .  S
Eu495       O505   2.367       .  S
Eu495       O496   2.345       .  S
Eu495      O1253   2.352   1_545  S
Eu495      O1259   2.349   1_545  S
O496       Eu525   2.342       .  S
O496      Eu1278   2.360   1_545  S
O497       Eu524   2.352       .  S
O497      Eu1251   2.352       .  S
O497      Eu2035   2.352   1_455  S
C498        C748   1.434       .  S
C498       O1999   1.295   1_455  A
C499        C654   1.441       .  S
C500        C592   1.433       .  S
C500       O1245   1.294       .  A
C501        C723   1.440       .  S
H502        O503   0.965       .  S
O503       Eu524   2.367       .  S
O503       Eu522   2.355       .  S
O503      Eu1251   2.349       .  S
H504        O505   0.964       .  S
O505       Eu525   2.355       .  S
O505      Eu2791   2.347   1_445  S
O506        C529   1.295       .  A
O506       Eu522   2.485       .  S
O507        C530   1.290       .  A
O507       Eu523   2.463       .  S
O508        C531   1.290       .  A
O508       Eu524   2.463       .  S
O509        C532   1.295       .  A
O509       Eu525   2.485       .  S
O510        C533   1.290       .  A
O510      Eu2037   2.461       .  S
O511        C534   1.295       .  A
O511      Eu2036   2.487       .  S
O512        C535   1.289       .  A
O512       Eu526   2.460       .  S
O513        C536   1.295       .  A
O513       Eu526   2.486       .  S
O514        C535   1.292       .  A
O514      Eu2036   2.473       .  S
O515       C1292   1.285   1_545  A
O515      Eu2037   2.430       .  S
O516        C531   1.293       .  A
O516       Eu522   2.476       .  S
O517        C534   1.285       .  A
O517       Eu523   2.429       .  S
O518        C533   1.292       .  A
O518      Eu1279   2.472   1_545  S
O519        C532   1.285       .  A
O519      Eu1278   2.432   1_545  S
O520       C2041   1.285       .  A
O520       Eu526   2.432       .  S
O521        C530   1.292       .  A
O521       Eu526   2.474       .  S
Eu522      O1244   2.461       .  S
Eu522      O1275   2.432       .  S
Eu522       O540   2.359       .  S
Eu522       O528   2.342       .  S
Eu522      O1252   2.360       .  S
Eu523      O1243   2.486       .  S
Eu523      O1274   2.472       .  S
Eu523       O527   2.345       .  S
Eu523       O538   2.368       .  S
Eu523      O2009   2.352       .  S
Eu523      O2773   2.347       .  S
Eu524      O2023   2.487   1_455  S
Eu524      O2026   2.473   1_455  S
Eu524       O528   2.346       .  S
Eu524      O2050   2.347   1_455  S
Eu525      O2022   2.461   1_455  S
Eu525      O2027   2.430   1_455  S
Eu525      O2795   2.358   1_445  S
Eu525      O1296   2.358   1_545  S
Eu526       O527   2.341       .  S
Eu526       O538   2.356       .  S
Eu526      O2052   2.358       .  S
Eu526      O2040   2.359       .  S
O527      Eu2793   2.358       .  S
O528      Eu2038   2.359   1_455  S
C529        C702   1.434       .  S
C529       O2032   1.285   1_455  A
C530        C651   1.440       .  S
C531        C580   1.441       .  S
C532        C629   1.434       .  S
C533        C583   1.441       .  S
C534        C668   1.433       .  S
C535        C725   1.441       .  S
C536        C604   1.434       .  S
C536       O1271   1.285       .  A
H537        O538   0.964       .  S
O538      Eu2036   2.347       .  S
H539        O540   0.966       .  S
O540      Eu1281   2.358       .  S
O540      Eu2038   2.358   1_455  S
C541       C1727   1.434   1_455  S
C541        C542   1.205       .  T
C543        C544   1.209       .  T
C545        C546   1.205       .  T
C547        C548   1.210       .  T
C549        C550   1.201       .  T
C550        C551   1.405       .  S
C551        C552   1.201       .  T
C553        C554   1.206       .  T
C555        C556   1.210       .  T
C557        C558   1.209       .  T
C559        C560   1.206       .  T
C561       C2074   1.202       .  T
C562       C2073   1.202   1_455  T
C562        C563   1.406       .  S
C563        C564   1.202       .  T
C565        C566   1.210       .  T
C567        C568   1.205       .  T
C569        C570   1.206       .  T
C571        C572   1.209       .  T
C573        C574   1.202       .  T
C574        C575   1.407       .  S
C575        C576   1.202       .  T
C577        C578   1.207       .  T
C579        C580   1.210       .  T
C581        C582   1.205       .  T
C583        C584   1.210       .  T
C585       C1342   1.203       .  T
C586       C1341   1.203       .  T
C586        C587   1.407       .  S
C587        C588   1.202       .  T
C589        C590   1.209       .  T
C591        C592   1.205       .  T
C593        C594   1.210       .  T
C595        C596   1.205       .  T
C597        C921   1.429   1_545  S
C597        C598   1.202       .  T
C598        C599   1.406       .  S
C599        C600   1.202       .  T
C601        C602   1.210       .  T
C603        C911   1.435       .  S
C603        C604   1.206       .  T
C605        C606   1.209       .  T
C607        C608   1.205       .  T
C609        C610   1.201       .  T
C610        C611   1.405       .  S
C611        C612   1.202       .  T
C613        C614   1.205       .  T
C615        C616   1.210       .  T
C617        C618   1.206       .  T
C619        C620   1.209       .  T
C620       C1645   1.441   1_455  S
C621        C897   1.429   1_545  S
C621        C622   1.202       .  T
C622        C623   1.406       .  S
C623        C624   1.202       .  T
C625       C2138   1.209       .  T
C626       C2137   1.209   1_455  T
C627        C628   1.206       .  T
C629        C630   1.206       .  T
C631        C632   1.210       .  T
C633        C634   1.202       .  T
C634        C635   1.406       .  S
C635        C636   1.202       .  T
C637        C638   1.210       .  T
C639        C640   1.205       .  T
C641        C642   1.204       .  T
C643        C644   1.208       .  T
C645        C646   1.202       .  T
C646        C647   1.406       .  S
C647       C1404   1.202       .  T
C648       C1403   1.202   1_545  T
C649        C650   1.205       .  T
C651        C652   1.209       .  T
C653        C654   1.210       .  T
C655        C656   1.205       .  T
C657        C658   1.202       .  T
C658        C659   1.406       .  S
C659        C660   1.202       .  T
C661        C662   1.205       .  T
C663       C1603   1.443   1_455  S
C663        C664   1.210       .  T
C665        C666   1.209       .  T
C667        C668   1.205       .  T
C669        C670   1.202       .  T
C670        C671   1.406       .  S
C671        C672   1.202       .  T
C673        C674   1.208       .  T
C675        C837   1.433       .  S
C675        C676   1.204       .  T
C677       C2190   1.210   1_455  T
C678       C2189   1.210       .  T
C679        C680   1.205       .  T
C681        C682   1.202       .  T
C682        C683   1.406       .  S
C683        C684   1.202       .  T
C685        C686   1.205       .  T
C687        C688   1.209       .  T
C688        C823   1.441       .  S
C689        C690   1.205       .  T
C691        C692   1.210       .  T
C693        C694   1.202       .  T
C694        C695   1.406       .  S
C695        C696   1.202       .  T
C697       C1454   1.209       .  T
C698       C1453   1.209   1_545  T
C699        C700   1.205       .  T
C701       C1563   1.434       .  S
C701        C702   1.206   1_655  T
C703        C704   1.210       .  T
C705        C706   1.202       .  T
C706        C707   1.407       .  S
C707        C708   1.202       .  T
C709        C710   1.210       .  T
C711        C712   1.205       .  T
C713        C714   1.205       .  T
C715        C716   1.209       .  T
C717        C718   1.201       .  T
C718        C719   1.405       .  S
C719        C720   1.202       .  T
C721        C722   1.206       .  T
C723        C724   1.209       .  T
C725        C726   1.210       .  T
C727        C728   1.205       .  T
C729       C2242   1.202       .  T
C730       C2241   1.202   1_455  T
C730        C731   1.406       .  S
C731        C732   1.202       .  T
C733        C734   1.209       .  T
C735        C736   1.205       .  T
C737        C738   1.205       .  T
C739       C1496   1.210   1_545  T
C740       C1495   1.210       .  T
C741        C742   1.202       .  T
C742        C743   1.407       .  S
C743        C744   1.202       .  T
C745        C746   1.209       .  T
C747        C748   1.206       .  T
C749        C750   1.210       .  T
C750        C757   1.443       .  S
C751        C752   1.205       .  T
C753        C754   1.202       .  T
C754        C755   1.407       .  S
C755        C756   1.202       .  T
C757        N758   1.359       .  A
C757        N762   1.363       .  A
N758        C759   1.357       .  A
C759        N760   1.351       .  A
C759       C1512   1.430       .  S
N760        C761   1.351       .  A
C761        N762   1.362       .  A
C761       C1508   1.434       .  S
C763        N764   1.362       .  A
C763        N768   1.359       .  A
C763       C1502   1.441       .  S
N764        C765   1.362       .  A
C765        N766   1.352   1_455  A
C765       C1503   1.435       .  S
N766       C2279   1.351       .  A
C767       N2278   1.351       .  A
C767       N2280   1.357       .  A
C767       C1509   1.429       .  S
N768       C2279   1.357   1_455  A
C769        N770   1.363       .  A
C769        N774   1.359       .  A
C769       C1496   1.443       .  S
N770        C771   1.362       .  A
C771        N772   1.351       .  A
C771       C1493   1.434       .  S
N772        C773   1.351       .  A
C773        N774   1.357       .  A
C773       C1497   1.430       .  S
C775        N776   1.359       .  A
C775        N780   1.362       .  A
C775       C1490   1.442       .  S
N776        C777   1.357       .  A
C777        N778   1.351       .  A
C777       C1500   1.429       .  S
N778        C779   1.351       .  A
C779        N780   1.361       .  A
C779       C1491   1.434       .  S
C781        N782   1.359       .  A
C781        N786   1.363       .  A
C781       C1482   1.443       .  S
N782        C783   1.357       .  A
C783        N784   1.351       .  A
C783       C1485   1.429       .  S
N784        C785   1.351       .  A
C785        N786   1.362       .  A
C785       C1484   1.434       .  S
C787        N788   1.363       .  A
C787        N792   1.359       .  A
C787       C1480   1.442       .  S
N788        C789   1.362       .  A
C789        N790   1.351       .  A
C789       C1477   1.435       .  S
N790        C791   1.351       .  A
C791        N792   1.357       .  A
C791       C1488   1.429       .  S
C793        N794   1.363   1_554  A
C793        N798   1.359       .  A
C793       C1471   1.441       .  S
N794        C795   1.362       .  A
C795        N796   1.351       .  A
C795       C1469   1.434       .  S
N796        C797   1.351   1_556  A
C797        N798   1.357       .  A
C797       C1473   1.428       .  S
C799        N800   1.363       .  A
C799        N804   1.359       .  A
C799       C1466   1.442       .  S
N800        C801   1.361       .  A
C801        N802   1.351       .  A
C801       C1468   1.433       .  S
N802        C803   1.351       .  A
C803        N804   1.357       .  A
C803       C1476   1.428       .  S
C805        N806   1.363       .  A
C805        N810   1.359       .  A
C805       C1459   1.443       .  S
N806        C807   1.362       .  A
C807       N2320   1.352       .  A
C807       C2969   1.434       .  S
N808       C2319   1.352   1_455  A
N808        C809   1.351       .  A
C809       N2322   1.357   1_455  A
C809       C1461   1.430       .  S
N810       C2321   1.357       .  A
C811        N812   1.359       .  A
C811        N816   1.362       .  A
C811       C1453   1.441       .  S
N812        C813   1.357       .  A
C813        N814   1.351       .  A
C813       C1464   1.430       .  S
N814        C815   1.352       .  A
C815        N816   1.361       .  A
C815       C1456   1.434       .  S
C817        N818   1.363       .  A
C817        N822   1.359       .  A
C817       C1447   1.442       .  S
N818        C819   1.362       .  A
C819        N820   1.351       .  A
C819       C1445   1.434       .  S
N820        C821   1.351       .  A
C821        N822   1.357       .  A
C821       C1452   1.428       .  S
C823        N824   1.359       .  A
C823        N828   1.362       .  A
N824        C825   1.357       .  A
C825        N826   1.351       .  A
C825       C1449   1.428       .  S
N826        C827   1.351       .  A
C827        N828   1.361       .  A
C827       C1442   1.434       .  S
C829        N830   1.363       .  A
C829        N834   1.359       .  A
C829       C1433   1.442       .  S
N830        C831   1.362       .  A
C831        N832   1.351       .  A
C831       C1436   1.434       .  S
N832        C833   1.351       .  A
C833        N834   1.357       .  A
C833       C1437   1.428       .  S
C835        N836   1.362       .  A
C835       C1430   1.440       .  S
N836        C837   1.361       .  A
N838        C839   1.351       .  A
C839        N840   1.357       .  A
C839       C1440   1.428       .  S
C841        N842   1.363       .  A
C841        N846   1.359       .  A
C841       C1422   1.441       .  S
N842        C843   1.362       .  A
C843        N844   1.351       .  A
C843       C1423   1.434       .  S
N844        C845   1.351       .  A
C845        N846   1.357       .  A
C845       C1425   1.429       .  S
C847        N848   1.359       .  A
C847        N852   1.363       .  A
C847       C2931   1.443       .  S
N848        C849   1.357       .  A
C849        N850   1.351       .  A
C849       C1428   1.429       .  S
N850        C851   1.351       .  A
C851        N852   1.362       .  A
C851       C1417   1.434       .  S
C853        N854   1.363       .  A
C853        N858   1.359       .  A
C853       C1409   1.442       .  S
N854        C855   1.362       .  A
C855        N856   1.351       .  A
C855       C1412   1.434       .  S
N856        C857   1.351       .  A
C857        N858   1.357       .  A
C857       C1413   1.430       .  S
C859        N860   1.359       .  A
C859        N864   1.362       .  A
C859       C1408   1.442       .  S
N860        C861   1.357       .  A
C861        N862   1.351       .  A
C861       C1416   1.429       .  S
N862        C863   1.351       .  A
C863        N864   1.361       .  A
C863       C1405   1.434       .  S
C865        N866   1.359       .  A
C865        N870   1.361   1_554  A
C865       C1400   1.440       .  S
N866        C867   1.357       .  A
C867        N868   1.351   1_554  A
C867       C1404   1.428       .  S
N868        C869   1.351       .  A
C869        N870   1.360       .  A
C869       C1397   1.432       .  S
C871        N872   1.363       .  A
C871        N876   1.359       .  A
C871       C1393   1.442       .  S
N872        C873   1.362       .  A
C873        N874   1.351       .  A
C873       C1395   1.434       .  S
N874        C875   1.351       .  A
C875        N876   1.357       .  A
C875       C1401   1.429       .  S
C877        N878   1.363       .  A
C877        N882   1.359       .  A
C877       C1388   1.443       .  S
N878        C879   1.362       .  A
C879        N880   1.352       .  A
C879       C1386   1.434       .  S
N880        C881   1.351       .  A
C881        N882   1.357       .  A
C881       C1392   1.429       .  S
C883        N884   1.363       .  A
C883        N888   1.358       .  A
C883       C1382   1.441       .  S
N884        C885   1.362       .  A
C885        N886   1.352       .  A
C885       C1383   1.435       .  S
N886        C887   1.351       .  A
C887        N888   1.356       .  A
C887       C1389   1.429       .  S
C889        N890   1.359       .  A
C889        N894   1.363       .  A
C889       C2888   1.441       .  S
N890        C891   1.356       .  A
C891        N892   1.351       .  A
C891       C1380   1.428       .  S
N892        C893   1.351       .  A
C893        N894   1.362       .  A
C893       C1374   1.434       .  S
C895        N896   1.359       .  A
C895        N900   1.363       .  A
C895       C1372   1.443       .  S
N896        C897   1.357       .  A
C897        N898   1.351       .  A
N898        C899   1.351       .  A
C899        N900   1.362       .  A
C899       C1370   1.434       .  S
C901        N902   1.359       .  A
C901        N906   1.363       .  A
C901       C1361   1.441       .  S
N902        C903   1.356       .  A
C903        N904   1.351       .  A
C903       C1365   1.428       .  S
N904        C905   1.351       .  A
C905        N906   1.362       .  A
C905       C1363   1.434       .  S
C907        N912   1.363       .  A
C907       C1358   1.443       .  S
N908        C909   1.357       .  A
C909        N910   1.351       .  A
C909       C1368   1.428       .  S
C911        N912   1.362       .  A
C913        N914   1.359       .  A
C913        N918   1.363       .  A
C913       C1349   1.443       .  S
N914        C915   1.357       .  A
C915        N916   1.351       .  A
C915       C1356   1.429       .  S
N916        C917   1.351       .  A
C917        N918   1.362       .  A
C917       C1351   1.434       .  S
C919        N920   1.359       .  A
C919        N924   1.362       .  A
C919       C1345   1.441       .  S
N920        C921   1.357       .  A
C921        N922   1.351       .  A
N922        C923   1.351       .  A
C923        N924   1.361       .  A
C923       C1347   1.433       .  S
C925        N926   1.362       .  A
C925        N930   1.359       .  A
C925       C1340   1.443       .  S
N926        C927   1.361       .  A
C927        N928   1.352       .  A
C927       C1337   1.434       .  S
N928        C929   1.351       .  A
C929        N930   1.357       .  A
C929       C1341   1.430       .  S
C931        N932   1.359       .  A
C931        N936   1.363       .  A
C931       C1335   1.443       .  S
N932        C933   1.357       .  A
C933        N934   1.352       .  A
C933       C1344   1.430       .  S
N934        C935   1.352       .  A
C935        N936   1.362       .  A
C935       C1334   1.436       .  S
C937        N938   1.359       .  A
C937        N942   1.363       .  A
C937       C1327   1.442       .  S
N938        C939   1.357       .  A
C939        N940   1.351       .  A
C939       C1332   1.429       .  S
N940        C941   1.351       .  A
C941        N942   1.362       .  A
C941       C1326   1.434       .  S
C943        N944   1.359       .  A
C943        N948   1.363       .  A
C943       C1321   1.443       .  S
N944       C2457   1.357   1_455  A
C945       N2456   1.357       .  A
C945       N2458   1.351       .  A
C945       C1329   1.430       .  S
N946       C2457   1.351       .  A
N946        C947   1.352   1_655  A
C947        N948   1.362       .  A
C947       C1323   1.434       .  S
C949        N950   1.359       .  A
C949        N954   1.363   1_554  A
C949       C1313   1.441       .  S
N950        C951   1.356       .  A
C951        N952   1.351   1_554  A
C951       C1317   1.429       .  S
N952        C953   1.351       .  A
C953        N954   1.362       .  A
C953       C1315   1.435       .  S
C955        N956   1.359       .  A
C955        N960   1.363       .  A
C955       C1312   1.443       .  S
N956        C957   1.357       .  A
C957        N958   1.351       .  A
C957       C1320   1.429       .  S
N958        C959   1.352       .  A
C959        N960   1.362       .  A
C959       C1309   1.435       .  S
C961        N962   1.363       .  A
C961        N966   1.359       .  A
C961       C1304   1.442       .  S
N962        C963   1.362       .  A
C963        N964   1.351       .  A
C963       C1301   1.434       .  S
N964        C965   1.351       .  A
C965        N966   1.357       .  A
C965       C1305   1.428       .  S
C967        N968   1.359       .  A
C967        N972   1.363       .  A
C967       C1299   1.441       .  S
N968       C2481   1.356       .  A
C969       N2480   1.356   1_455  A
C969        N970   1.351       .  A
C969       C1308   1.428       .  S
N970       C2483   1.351   1_455  A
C971       N2482   1.351       .  A
C971        N972   1.362       .  A
C971       C2809   1.434       .  S
O973        C984   1.295       .  A
O973      Eu1009   2.484       .  S
O974        C985   1.290       .  A
O974      Eu1008   2.463       .  S
O975        C986   1.290       .  A
O975       Eu981   2.461       .  S
O976        C987   1.295       .  A
O976       Eu981   2.484       .  S
O977        C987   1.285       .  A
O977      Eu1011   2.430       .  S
O978        C986   1.292       .  A
O978      Eu1010   2.472       .  S
O979        C985   1.292       .  A
O979       Eu981   2.471       .  S
O980        C984   1.285       .  A
O980       Eu981   2.431       .  S
Eu981       O991   2.357       .  S
Eu981       O983   2.359       .  S
Eu981       O982   2.342       .  S
Eu981       O989   2.355       .  S
O982      Eu1011   2.358       .  S
O982      Eu1008   2.346       .  S
O983      Eu1009   2.341       .  S
O983      Eu1010   2.345       .  S
C984       C1507   1.434       .  S
C985       C1429   1.438       .  S
C986       C1495   1.442       .  S
C987       C1352   1.433       .  S
H988        O989   0.965       .  S
O989      Eu1010   2.347       .  S
O989      Eu1008   2.368       .  S
H990        O991   0.966       .  S
O991      Eu1009   2.358       .  S
O991      Eu1011   2.358       .  S
O992       C1015   1.295       .  A
O992      Eu1008   2.488       .  S
O993       C1016   1.289       .  A
O993      Eu1009   2.459       .  S
O994       C1017   1.294       .  A
O994      Eu1010   2.482       .  S
O995       C1018   1.289       .  A
O995      Eu1011   2.459       .  S
O996       C1019   1.295       .  A
O996      Eu1011   2.483       .  S
O997       C1020   1.290       .  A
O997      Eu1010   2.461       .  S
O998       C1021   1.295       .  A
O998      Eu1012   2.486       .  S
O999       C1022   1.290       .  A
O999      Eu1012   2.463       .  S
O1000      C1021   1.285       .  A
O1000     Eu1010   2.432       .  S
O1001      C1022   1.292       .  A
O1001     Eu1011   2.473       .  S
O1002      C1017   1.285       .  A
O1002     Eu1008   2.432       .  S
O1003      C1020   1.293       .  A
O1003     Eu1009   2.475       .  S
O1004      C1019   1.285       .  A
O1004     Eu1009   2.431       .  S
O1005      C1018   1.292       .  A
O1005     Eu1008   2.473       .  S
O1006      C1015   1.285       .  A
O1006     Eu1012   2.429       .  S
O1007      C1016   1.292       .  A
O1007     Eu1012   2.473       .  S
Eu1008     O1026   2.346       .  S
Eu1008     O1014   2.352       .  S
Eu1009     O1013   2.360       .  S
Eu1009     O1024   2.354       .  S
Eu1010     O1024   2.367       .  S
Eu1010     O1014   2.352       .  S
Eu1011     O1013   2.341       .  S
Eu1011     O1026   2.354       .  S
Eu1012     O1013   2.345       .  S
Eu1012     O1024   2.346       .  S
Eu1012     O1026   2.367       .  S
Eu1012     O1014   2.353       .  S
C1015      C1470   1.434       .  S
C1016      C1434   1.441       .  S
C1017      C1398   1.432       .  S
C1018      C1303   1.441       .  S
C1019      C1418   1.433       .  S
C1020      C1300   1.439       .  S
C1021      C1316   1.434       .  S
C1022      C1489   1.440       .  S
H1023      O1024   0.964       .  S
H1025      O1026   0.964       .  S
O1027      C1038   1.295       .  A
O1027     Eu1063   2.485       .  S
O1028      C1039   1.290       .  A
O1028     Eu1062   2.461       .  S
O1029      C1040   1.294       .  A
O1029     Eu1035   2.482       .  S
O1030      C1041   1.290       .  A
O1030     Eu2547   2.462   1_554  S
O1031      C1041   1.292       .  A
O1031     Eu1065   2.475       .  S
O1032      C1040   1.285   1_545  A
O1033      C1039   1.292       .  A
O1033     Eu1035   2.473   1_554  S
O1034      C1038   1.285       .  A
O1034     Eu2547   2.432       .  S
Eu1035     O2542   2.462   1_456  S
Eu1035     O2546   2.432   1_455  S
Eu1035     O2557   2.366   1_456  S
Eu1035     O1037   2.352       .  S
Eu1035     O1036   2.345   1_556  S
Eu1035     O1043   2.347   1_556  S
O1036     Eu2577   2.341   1_455  S
O1036     Eu1062   2.358       .  S
O1037     Eu2575   2.352   1_455  S
C1038      C1492   1.434       .  S
C1039      C1311   1.442       .  S
C1040      C1432   1.432       .  S
C1041      C1472   1.440       .  S
H1042      O1043   0.965       .  S
O1043     Eu1062   2.356       .  S
H1044      O1045   0.965       .  S
O1045     Eu2547   2.366   1_554  S
O1045     Eu1063   2.346   1_554  S
O1045     Eu1065   2.354       .  S
O1046      C1069   1.295       .  A
O1047      C1070   1.290       .  A
O1048      C1071   1.290       .  A
O1048     Eu1064   2.464   1_554  S
O1049      C2584   1.294       .  A
O1049     Eu1065   2.483       .  S
O1050      C1073   1.289       .  A
O1050     Eu1065   2.458       .  S
O1051      C1074   1.295       .  A
O1051     Eu1064   2.486       .  S
O1052      C1075   1.290       .  A
O1052     Eu1066   2.460       .  S
O1053     Eu2578   2.483       .  S
O1054      C1075   1.292       .  A
O1054     Eu1064   2.471   1_554  S
O1055      C1076   1.285       .  A
O1055     Eu1065   2.431       .  S
O1056     Eu1062   2.469   1_545  S
O1057      C2586   1.285       .  A
O1058      C1073   1.292       .  A
O1058     Eu1063   2.473   1_554  S
O1059      C1072   1.285       .  A
O1059     Eu1062   2.432       .  S
O1060      C1069   1.285       .  A
O1060     Eu1066   2.430       .  S
O1061      C1070   1.292       .  A
O1061     Eu2578   2.474       .  S
Eu1062     O1080   2.357       .  S
Eu1063     O2549   2.352       .  S
Eu1063     O1067   2.346   1_556  S
Eu1063     O1834   2.367   1_566  S
Eu1064     O1078   2.347   1_556  S
Eu1064     O1068   2.345   1_556  S
Eu1065     O2548   2.341       .  S
Eu1065     O1067   2.360       .  S
Eu1065     O2592   2.358       .  S
Eu1066     O2565   2.483   1_455  S
Eu1066     O2573   2.474   1_455  S
Eu1066     O1823   2.342   1_455  S
Eu1066     O1078   2.353       .  S
Eu1066     O1068   2.359       .  S
O1067     Eu1822   2.342   1_565  S
C1069      C1446   1.433       .  S
C1070      C1314   1.439       .  S
C1071      C1399   1.438       .  S
C1072      C1324   1.434       .  S
C1072      O2561   1.294   1_455  A
C1073      C1394   1.441       .  S
C1074      C1298   1.434       .  S
C1074      O2569   1.285   1_455  A
C1075      C1465   1.441       .  S
C1076      C1369   1.433       .  S
H1077      O1078   0.964       .  S
O1078     Eu1819   2.367   1_454  S
H1079      O1080   0.966       .  S
O1080     Eu2577   2.358   1_455  S
O1081      C1092   1.295       .  A
O1081     Eu1117   2.484       .  S
O1082      C1093   1.290       .  A
O1082     Eu1116   2.462       .  S
O1083      C1094   1.289       .  A
O1083     Eu1089   2.460       .  S
O1084      C1095   1.295       .  A
O1084     Eu1089   2.484       .  S
O1085      C1095   1.285       .  A
O1085     Eu1119   2.432       .  S
O1086      C1094   1.292       .  A
O1086     Eu1118   2.473       .  S
O1087      C1093   1.293       .  A
O1087     Eu1089   2.475       .  S
O1088      C1092   1.285       .  A
O1088     Eu1089   2.431       .  S
Eu1089     O1099   2.359       .  S
Eu1089     O1091   2.360       .  S
Eu1089     O1090   2.342       .  S
Eu1089     O1097   2.354       .  S
O1090     Eu1119   2.359       .  S
O1090     Eu1116   2.346       .  S
O1091     Eu1117   2.343       .  S
O1091     Eu1118   2.347       .  S
C1092      C1483   1.433       .  S
C1093      C1362   1.440       .  S
C1094      C1460   1.442       .  S
C1095      C1411   1.434       .  S
H1096      O1097   0.964       .  S
O1097     Eu1118   2.344       .  S
O1097     Eu1116   2.367       .  S
H1098      O1099   0.966       .  S
O1099     Eu1117   2.358       .  S
O1099     Eu1119   2.358       .  S
O1100      C1123   1.295       .  A
O1100     Eu1116   2.485       .  S
O1101      C1124   1.289       .  A
O1101     Eu1117   2.458       .  S
O1102      C1125   1.295       .  A
O1102     Eu1118   2.486       .  S
O1103      C1126   1.289       .  A
O1103     Eu1119   2.459       .  S
O1104      C1127   1.294       .  A
O1104     Eu1119   2.481       .  S
O1105      C1128   1.290       .  A
O1105     Eu1118   2.461       .  S
O1106      C1129   1.295       .  A
O1106     Eu1120   2.488       .  S
O1107      C1130   1.290       .  A
O1107     Eu1120   2.464       .  S
O1108      C1129   1.285       .  A
O1108     Eu1118   2.430       .  S
O1109      C1130   1.292       .  A
O1109     Eu1119   2.472       .  S
O1110      C1125   1.285       .  A
O1110     Eu1116   2.431       .  S
O1111      C1128   1.293       .  A
O1111     Eu1117   2.475       .  S
O1112      C1127   1.285       .  A
O1112     Eu1117   2.434       .  S
O1113      C1126   1.292       .  A
O1113     Eu1116   2.473       .  S
O1114      C1123   1.285       .  A
O1114     Eu1120   2.431       .  S
O1115      C1124   1.293       .  A
O1115     Eu1120   2.475       .  S
Eu1116     O1134   2.345       .  S
Eu1116     O1122   2.353       .  S
Eu1117     O1121   2.359       .  S
Eu1117     O1132   2.355       .  S
Eu1118     O1132   2.368       .  S
Eu1118     O1122   2.353       .  S
Eu1119     O1121   2.342       .  S
Eu1119     O1134   2.354       .  S
Eu1120     O1121   2.346       .  S
Eu1120     O1132   2.346       .  S
Eu1120     O1134   2.368       .  S
Eu1120     O1122   2.353       .  S
C1123      C1441   1.433       .  S
C1124      C1357   1.441       .  S
C1125      C1325   1.434       .  S
C1126      C1387   1.441       .  S
C1127      C1338   1.434       .  S
C1128      C1381   1.440       .  S
C1129      C1373   1.434       .  S
C1130      C1454   1.439       .  S
H1131      O1132   0.964       .  S
H1133      O1134   0.964       .  S
O1135      C1146   1.289       .  A
O1135     Eu1171   2.460       .  S
O1136      C1147   1.295       .  A
O1136     Eu1170   2.485       .  S
O1137      C1148   1.290       .  A
O1137     Eu1143   2.462       .  S
O1138      C1149   1.295       .  A
O1138     Eu1143   2.488       .  S
O1139      C1149   1.285       .  A
O1139     Eu1173   2.433       .  S
O1140      C1148   1.292       .  A
O1140     Eu1172   2.474       .  S
O1141      C1147   1.285       .  A
O1141     Eu1143   2.431       .  S
O1142      C1146   1.292       .  A
O1142     Eu1143   2.473       .  S
Eu1143     O1153   2.346       .  S
Eu1143     O1145   2.346       .  S
Eu1143     O1144   2.352       .  S
Eu1143     O1151   2.368       .  S
O1144     Eu1173   2.352       .  S
O1144     Eu1170   2.352       .  S
O1145     Eu1171   2.359       .  S
O1145     Eu1172   2.341       .  S
C1146      C1505   1.442       .  S
C1147      C1406   1.433       .  S
C1148      C1421   1.440       .  S
C1149      C1333   1.436       .  S
H1150      O1151   0.964       .  S
O1151     Eu1172   2.355       .  S
O1151     Eu1170   2.347       .  S
H1152      O1153   0.964       .  S
O1153     Eu1171   2.356       .  S
O1153     Eu1173   2.368       .  S
O1154      C1177   1.290       .  A
O1154     Eu1170   2.461       .  S
O1155      C1178   1.295       .  A
O1155     Eu1171   2.484       .  S
O1156      C1179   1.289       .  A
O1156     Eu1172   2.459       .  S
O1157      C1180   1.295       .  A
O1157     Eu1173   2.487       .  S
O1158      C1181   1.290       .  A
O1158     Eu1173   2.464       .  S
O1159      C1182   1.295       .  A
O1159     Eu1172   2.484       .  S
O1160      C1183   1.295       .  A
O1160     Eu1174   2.485       .  S
O1161      C1184   1.290       .  A
O1161     Eu1174   2.461       .  S
O1162      C1183   1.285       .  A
O1162     Eu1172   2.431       .  S
O1163      C1184   1.292       .  A
O1163     Eu1173   2.473       .  S
O1164      C1179   1.292       .  A
O1164     Eu1170   2.474       .  S
O1165      C1182   1.285       .  A
O1165     Eu1171   2.431       .  S
O1166      C1181   1.292       .  A
O1166     Eu1171   2.472       .  S
O1167      C1180   1.285       .  A
O1167     Eu1170   2.432       .  S
O1168      C1177   1.292       .  A
O1168     Eu1174   2.475       .  S
O1169      C1178   1.285       .  A
O1169     Eu1174   2.431       .  S
Eu1170     O1188   2.368       .  S
Eu1170     O1176   2.345       .  S
Eu1171     O1175   2.342       .  S
Eu1171     O1186   2.358       .  S
Eu1172     O1186   2.358       .  S
Eu1172     O1176   2.360       .  S
Eu1173     O1175   2.346       .  S
Eu1173     O1188   2.348       .  S
Eu1174     O1175   2.360       .  S
Eu1174     O1186   2.358       .  S
Eu1174     O1188   2.355       .  S
Eu1174     O1176   2.342       .  S
C1177      C1501   1.440       .  S
C1178      C1435   1.433       .  S
C1179      C1350   1.442       .  S
C1180      C1478   1.435       .  S
C1181      C1346   1.439       .  S
C1182      C1494   1.434       .  S
C1183      C1302   1.434       .  S
C1184      C1420   1.442       .  S
H1185      O1186   0.966       .  S
H1187      O1188   0.965       .  S
O1189      C1200   1.295       .  A
O1189     Eu1225   2.484       .  S
O1190      C1201   1.290       .  A
O1190     Eu1224   2.460       .  S
O1191      C1202   1.289       .  A
O1191     Eu1197   2.459       .  S
O1192      C1203   1.295       .  A
O1192     Eu1197   2.484       .  S
O1193      C1203   1.285       .  A
O1193     Eu1227   2.433       .  S
O1194      C1202   1.292       .  A
O1194     Eu1226   2.473       .  S
O1195      C1201   1.293       .  A
O1195     Eu1197   2.475       .  S
O1196      C1200   1.285       .  A
O1196     Eu1197   2.431       .  S
Eu1197     O1207   2.358       .  S
Eu1197     O1199   2.360       .  S
Eu1197     O1198   2.342       .  S
Eu1197     O1205   2.354       .  S
O1198     Eu1227   2.359       .  S
O1198     Eu1224   2.347       .  S
O1199     Eu1225   2.343       .  S
O1199     Eu1226   2.346       .  S
C1200      C1467   1.433       .  S
C1201      C1375   1.439       .  S
C1202      C1448   1.441       .  S
C1203      C1310   1.434       .  S
H1204      O1205   0.964       .  S
O1205     Eu1226   2.345       .  S
O1205     Eu1224   2.366       .  S
H1206      O1207   0.966       .  S
O1207     Eu1225   2.358       .  S
O1207     Eu1227   2.357       .  S
O1208      C1231   1.295       .  A
O1208     Eu1224   2.484       .  S
O1209      C1232   1.290       .  A
O1209     Eu1225   2.461       .  S
O1210      C1233   1.295       .  A
O1210     Eu1226   2.486       .  S
O1211      C1234   1.290       .  A
O1211     Eu1227   2.461       .  S
O1212      C1235   1.295       .  A
O1212     Eu1227   2.486       .  S
O1213      C1236   1.290       .  A
O1213     Eu1226   2.462       .  S
O1214      C1237   1.295       .  A
O1214     Eu1228   2.487       .  S
O1215      C1238   1.290       .  A
O1215     Eu1228   2.463       .  S
O1216      C1237   1.285       .  A
O1216     Eu1226   2.430       .  S
O1217      C1238   1.292       .  A
O1217     Eu1227   2.473       .  S
O1218      C1233   1.285       .  A
O1218     Eu1224   2.433       .  S
O1219      C1236   1.292       .  A
O1219     Eu1225   2.475       .  S
O1220      C1235   1.285       .  A
O1220     Eu1225   2.429       .  S
O1221      C1234   1.292       .  A
O1221     Eu1224   2.472       .  S
O1222      C1231   1.285       .  A
O1222     Eu1228   2.433       .  S
O1223      C1232   1.292       .  A
O1223     Eu1228   2.473       .  S
Eu1224     O1242   2.346       .  S
Eu1224     O1230   2.352       .  S
Eu1225     O1229   2.359       .  S
Eu1225     O1240   2.354       .  S
Eu1226     O1240   2.368       .  S
Eu1226     O1230   2.353       .  S
Eu1227     O1229   2.342       .  S
Eu1227     O1242   2.355       .  S
Eu1228     O1229   2.346       .  S
Eu1228     O1240   2.347       .  S
Eu1228     O1242   2.367       .  S
Eu1228     O1230   2.353       .  S
C1231      C1455   1.433       .  S
C1232      C1371   1.442       .  S
C1233      C1384   1.435       .  S
C1234      C1322   1.442       .  S
C1235      C1396   1.433       .  S
C1236      C1328   1.440       .  S
C1237      C1364   1.434       .  S
C1238      C1443   1.439       .  S
H1239      O1240   0.964       .  S
H1241      O1242   0.964       .  S
O1243      C2766   1.295       .  A
O1244      C1255   1.290       .  A
O1245     Eu1251   2.482       .  S
O1246      C1257   1.290       .  A
O1246     Eu1251   2.463       .  S
O1247      C1257   1.292       .  A
O1247     Eu1281   2.474       .  S
O1248      C1256   1.285       .  A
O1248     Eu1280   2.433       .  S
O1249      C1255   1.292       .  A
O1249     Eu1251   2.471       .  S
O1250      C1254   1.285       .  A
O1250     Eu1251   2.433       .  S
Eu1251     O1261   2.367       .  S
Eu1251     O1252   2.345       .  S
O1252     Eu1281   2.342       .  S
O1253     Eu2791   2.352   1_455  S
O1253     Eu1280   2.352       .  S
C1254      C1504   1.434       .  S
C1254      O2755   1.295   1_455  A
C1255      C1410   1.441       .  S
C1256      C1348   1.433       .  S
C1257      C1479   1.440       .  S
H1258      O1259   0.965       .  S
O1259     Eu1280   2.367       .  S
O1259     Eu1278   2.355       .  S
H1260      O1261   0.964       .  S
O1261     Eu2035   2.347   1_455  S
O1261     Eu1281   2.355       .  S
O1262      C1285   1.295       .  A
O1262     Eu1278   2.485       .  S
O1263      C1286   1.290       .  A
O1263     Eu1279   2.463       .  S
O1264      C1287   1.290       .  A
O1264     Eu1280   2.463       .  S
O1265      C1288   1.295       .  A
O1265     Eu1281   2.485       .  S
O1266      C1289   1.290       .  A
O1266     Eu2793   2.461       .  S
O1267      C1290   1.295       .  A
O1267     Eu2792   2.487       .  S
O1268      C1291   1.289       .  A
O1268     Eu1282   2.460       .  S
O1269      C1292   1.295       .  A
O1269     Eu1282   2.486       .  S
O1270      C1291   1.292       .  A
O1270     Eu2792   2.473       .  S
O1271     Eu2793   2.430       .  S
O1272      C1287   1.293       .  A
O1272     Eu1278   2.476       .  S
O1273      C1290   1.285       .  A
O1273     Eu1279   2.429       .  S
O1274      C1289   1.292       .  A
O1275      C1288   1.285       .  A
O1276      C2797   1.285       .  A
O1276     Eu1282   2.432       .  S
O1277      C1286   1.292       .  A
O1277     Eu1282   2.474       .  S
Eu1278     O1296   2.359       .  S
Eu1278     O1284   2.342       .  S
Eu1279     O2765   2.352       .  S
Eu1279     O2017   2.347   1_565  S
Eu1279     O1283   2.345       .  S
Eu1279     O1294   2.368       .  S
Eu1280     O2779   2.487   1_455  S
Eu1280     O2782   2.473   1_455  S
Eu1280     O2806   2.347   1_455  S
Eu1280     O1284   2.346       .  S
Eu1281     O2778   2.461   1_455  S
Eu1281     O2783   2.430   1_455  S
Eu1281     O2039   2.358   1_455  S
Eu1282     O1283   2.341       .  S
Eu1282     O1294   2.356       .  S
Eu1282     O2808   2.358       .  S
Eu1282     O2796   2.359       .  S
O1283     Eu2037   2.358   1_565  S
O1284     Eu2794   2.359   1_455  S
C1285      C1458   1.434       .  S
C1285      O2788   1.285   1_455  A
C1286      C1407   1.440       .  S
C1287      C1336   1.441       .  S
C1288      C1385   1.434       .  S
C1289      C1339   1.441       .  S
C1290      C1424   1.433       .  S
C1291      C1481   1.441       .  S
C1292      C1360   1.434       .  S
H1293      O1294   0.964       .  S
O1294     Eu2792   2.347       .  S
H1295      O1296   0.966       .  S
O1296     Eu2794   2.358   1_455  S
C1297      C2483   1.434   1_455  S
C1297      C1298   1.205       .  T
C1299      C1300   1.209       .  T
C1301      C1302   1.205       .  T
C1303      C1304   1.210       .  T
C1305      C1306   1.201       .  T
C1306      C1307   1.405       .  S
C1307      C1308   1.201       .  T
C1309      C1310   1.206       .  T
C1311      C1312   1.210       .  T
C1313      C1314   1.209       .  T
C1315      C1316   1.206       .  T
C1317      C2830   1.202       .  T
C1318      C2829   1.202   1_455  T
C1318      C1319   1.406       .  S
C1319      C1320   1.202       .  T
C1321      C1322   1.210       .  T
C1323      C1324   1.205       .  T
C1325      C1326   1.206       .  T
C1327      C1328   1.209       .  T
C1329      C1330   1.202       .  T
C1330      C1331   1.407       .  S
C1331      C1332   1.202       .  T
C1333      C1334   1.207       .  T
C1335      C1336   1.210       .  T
C1337      C1338   1.205       .  T
C1339      C1340   1.210       .  T
C1342      C1343   1.407       .  S
C1343      C1344   1.202       .  T
C1345      C1346   1.209       .  T
C1347      C1348   1.205       .  T
C1349      C1350   1.210       .  T
C1351      C1352   1.205       .  T
C1353      C1354   1.202       .  T
C1354      C1355   1.406       .  S
C1355      C1356   1.202       .  T
C1357      C1358   1.210       .  T
C1359      C1360   1.206       .  T
C1361      C1362   1.209       .  T
C1363      C1364   1.205       .  T
C1365      C1366   1.201       .  T
C1366      C1367   1.405       .  S
C1367      C1368   1.202       .  T
C1369      C1370   1.205       .  T
C1371      C1372   1.210       .  T
C1373      C1374   1.206       .  T
C1375      C1376   1.209       .  T
C1376      C2401   1.441   1_455  S
C1377      C1378   1.202       .  T
C1378      C1379   1.406       .  S
C1379      C1380   1.202       .  T
C1381      C2894   1.209       .  T
C1382      C2893   1.209   1_455  T
C1383      C1384   1.206       .  T
C1385      C1386   1.206       .  T
C1387      C1388   1.210       .  T
C1389      C1390   1.202       .  T
C1390      C1391   1.406       .  S
C1391      C1392   1.202       .  T
C1393      C1394   1.210       .  T
C1395      C1396   1.205       .  T
C1397      C1398   1.204       .  T
C1399      C1400   1.208       .  T
C1401      C1402   1.202       .  T
C1402      C1403   1.406       .  S
C1405      C1406   1.205       .  T
C1407      C1408   1.209       .  T
C1409      C1410   1.210       .  T
C1411      C1412   1.205       .  T
C1413      C1414   1.202       .  T
C1414      C1415   1.406       .  S
C1415      C1416   1.202       .  T
C1417      C1418   1.205       .  T
C1419      C2359   1.443   1_455  S
C1419      C1420   1.210       .  T
C1421      C1422   1.209       .  T
C1423      C1424   1.205       .  T
C1425      C1426   1.202       .  T
C1426      C1427   1.406       .  S
C1427      C1428   1.202       .  T
C1429      C1430   1.208       .  T
C1431      C1432   1.204       .  T
C1433      C2946   1.210   1_455  T
C1434      C2945   1.210       .  T
C1435      C1436   1.205       .  T
C1437      C1438   1.202       .  T
C1438      C1439   1.406       .  S
C1439      C1440   1.202       .  T
C1441      C1442   1.205       .  T
C1443      C1444   1.209       .  T
C1445      C1446   1.205       .  T
C1447      C1448   1.210       .  T
C1449      C1450   1.202       .  T
C1450      C1451   1.406       .  S
C1451      C1452   1.202       .  T
C1455      C1456   1.205       .  T
C1457      C2319   1.434       .  S
C1457      C1458   1.206   1_655  T
C1459      C1460   1.210       .  T
C1461      C1462   1.202       .  T
C1462      C1463   1.407       .  S
C1463      C1464   1.202       .  T
C1465      C1466   1.210       .  T
C1467      C1468   1.205       .  T
C1469      C1470   1.205       .  T
C1471      C1472   1.209       .  T
C1473      C1474   1.201       .  T
C1474      C1475   1.405       .  S
C1475      C1476   1.202       .  T
C1477      C1478   1.206       .  T
C1479      C1480   1.209       .  T
C1481      C1482   1.210       .  T
C1483      C1484   1.205       .  T
C1485      C2998   1.202       .  T
C1486      C2997   1.202   1_455  T
C1486      C1487   1.406       .  S
C1487      C1488   1.202       .  T
C1489      C1490   1.209       .  T
C1491      C1492   1.205       .  T
C1493      C1494   1.205       .  T
C1497      C1498   1.202       .  T
C1498      C1499   1.407       .  S
C1499      C1500   1.202       .  T
C1501      C1502   1.209       .  T
C1503      C1504   1.206       .  T
C1505      C1506   1.210       .  T
C1507      C1508   1.205       .  T
C1509      C1510   1.202       .  T
C1510      C1511   1.407       .  S
C1511      C1512   1.202       .  T
C1513      N1514   1.359       .  A
C1513      N1518   1.363       .  A
C1513      C3018   1.443   1_545  S
N1514      C1515   1.357       .  A
C1515      N1516   1.351       .  A
C1515      C2268   1.430       .  S
N1516      C1517   1.351       .  A
C1517      N1518   1.362       .  A
C1517      C2264   1.434       .  S
C1519      N1520   1.362       .  A
C1519      N1524   1.359       .  A
C1519      C2258   1.441       .  S
N1520      C1521   1.362       .  A
C1521      N1522   1.352       .  A
C1521      C2259   1.435       .  S
C1523      C2265   1.429       .  S
C1525      N1526   1.363       .  A
C1525      N1530   1.359       .  A
C1525      C2252   1.443       .  S
N1526      C1527   1.362       .  A
C1527      N1528   1.351       .  A
C1527      C2249   1.434       .  S
N1528      C1529   1.351       .  A
C1529      N1530   1.357       .  A
C1529      C2253   1.430       .  S
C1531      N1532   1.359       .  A
C1531      N1536   1.362       .  A
C1531      C2246   1.442       .  S
N1532      C1533   1.357       .  A
C1533      N1534   1.351       .  A
C1533      C2256   1.429       .  S
N1534      C1535   1.351       .  A
C1535      N1536   1.362       .  A
C1535      C2247   1.434       .  S
C1537      N1538   1.359       .  A
C1537      N1542   1.363       .  A
C1537      C2238   1.443       .  S
N1538      C1539   1.357       .  A
C1539      N1540   1.351       .  A
C1539      C2241   1.429       .  S
N1540      C1541   1.351       .  A
C1541      N1542   1.362       .  A
C1541      C2240   1.434       .  S
C1543      N1544   1.363       .  A
C1543      N1548   1.359       .  A
C1543      C2236   1.442       .  S
N1544      C1545   1.362       .  A
C1545      N1546   1.351       .  A
C1545      C2233   1.435       .  S
N1546      C1547   1.351       .  A
C1547      N1548   1.357       .  A
C1547      C2244   1.429       .  S
C1549      N1550   1.363   1_554  A
C1549      N1554   1.359       .  A
C1549      C2227   1.441       .  S
N1550      C1551   1.362       .  A
C1551      N1552   1.351       .  A
C1551      C2225   1.434       .  S
N1552      C1553   1.351   1_556  A
C1553      N1554   1.357       .  A
C1553      C2229   1.428       .  S
C1555      N1556   1.363       .  A
C1555      N1560   1.359       .  A
C1555      C2222   1.442       .  S
N1556      C1557   1.361       .  A
C1557      N1558   1.351       .  A
C1557      C2224   1.433       .  S
N1558      C1559   1.351       .  A
C1559      N1560   1.357       .  A
C1559      C2232   1.428       .  S
C1561      N1562   1.363       .  A
C1561      N1566   1.359       .  A
C1561      C2215   1.443       .  S
N1562      C1563   1.362       .  A
N1564      C1565   1.351       .  A
C1565      C2217   1.430       .  S
C1567      N1568   1.359       .  A
C1567      N1572   1.362       .  A
C1567      C2209   1.441       .  S
N1568      C1569   1.357       .  A
C1569      N1570   1.351       .  A
C1569      C2220   1.430       .  S
N1570      C1571   1.352       .  A
C1571      N1572   1.361       .  A
C1571      C2212   1.434       .  S
C1573      N1574   1.363       .  A
C1573      N1578   1.359       .  A
C1573      C2203   1.442       .  S
N1574      C1575   1.362       .  A
C1575      N1576   1.351       .  A
C1575      C2201   1.434       .  S
N1576      C1577   1.351       .  A
C1577      N1578   1.357       .  A
C1577      C2208   1.428       .  S
C1579      N1580   1.359       .  A
C1579      N1584   1.362       .  A
C1579      C2956   1.441   1_545  S
N1580      C1581   1.357       .  A
C1581      N1582   1.351       .  A
C1581      C2205   1.428       .  S
N1582      C1583   1.351       .  A
C1583      N1584   1.361       .  A
C1583      C2198   1.434       .  S
C1585      N1586   1.363       .  A
C1585      N1590   1.359       .  A
C1585      C2189   1.442       .  S
N1586      C1587   1.362       .  A
C1587      N1588   1.351       .  A
C1587      C2192   1.434       .  S
N1588      C1589   1.351       .  A
C1589      N1590   1.357       .  A
C1589      C2193   1.428       .  S
C1591      N1592   1.362       .  A
C1591      N2352   1.359   1_545  A
C1591      C2186   1.440       .  S
N1592      C1593   1.361   1_545  A
C1593      N2350   1.351       .  A
C1593      C2943   1.433       .  S
N1594      C2349   1.351       .  A
N1594      C1595   1.351       .  A
C1595      N1596   1.357       .  A
C1595      C2196   1.428       .  S
N1596      C2347   1.359       .  A
C1597      N1598   1.363       .  A
C1597      N1602   1.359       .  A
C1597      C2178   1.441       .  S
N1598      C1599   1.362       .  A
C1599      N1600   1.351       .  A
C1599      C2179   1.434       .  S
N1600      C1601   1.351       .  A
C1601      N1602   1.357       .  A
C1601      C2181   1.429       .  S
C1603      N1604   1.359       .  A
C1603      N1608   1.363       .  A
N1604      C1605   1.357       .  A
C1605      N1606   1.351       .  A
C1605      C2184   1.429       .  S
N1606      C1607   1.351       .  A
C1607      N1608   1.362       .  A
C1607      C2173   1.434       .  S
C1609      N1610   1.363       .  A
C1609      N1614   1.359       .  A
C1609      C2165   1.442       .  S
N1610      C1611   1.362       .  A
C1611      N1612   1.351       .  A
C1611      C2168   1.434       .  S
N1612      C1613   1.351       .  A
C1613      N1614   1.357       .  A
C1613      C2169   1.430       .  S
C1615      N1616   1.359       .  A
C1615      N1620   1.362       .  A
C1615      C2164   1.442       .  S
N1616      C1617   1.357       .  A
C1617      N1618   1.351       .  A
C1617      C2172   1.429       .  S
N1618      C1619   1.351       .  A
C1619      N1620   1.361       .  A
C1619      C2161   1.434       .  S
C1621      N1622   1.359       .  A
C1621      N1626   1.361   1_554  A
C1621      C2156   1.440       .  S
N1622      C1623   1.357       .  A
C1623      N1624   1.351   1_554  A
C1623      C2160   1.428       .  S
N1624      C1625   1.351       .  A
C1625      N1626   1.360       .  A
C1625      C2153   1.432       .  S
C1627      N1628   1.363       .  A
C1627      N1632   1.359       .  A
C1627      C2149   1.442       .  S
N1628      C1629   1.362       .  A
C1629      N1630   1.351       .  A
C1629      C2151   1.434       .  S
N1630      C1631   1.351       .  A
C1631      N1632   1.357       .  A
C1631      C2157   1.429       .  S
C1633      N1634   1.363       .  A
C1633      N1638   1.359       .  A
C1633      C2144   1.443       .  S
N1634      C1635   1.362       .  A
C1635      N1636   1.352       .  A
C1635      C2142   1.434       .  S
N1636      C1637   1.351       .  A
C1637      N1638   1.357       .  A
C1637      C2148   1.429       .  S
C1639      N1640   1.363       .  A
C1639      N1644   1.358       .  A
C1639      C2138   1.441       .  S
N1640      C1641   1.362       .  A
C1641      N1642   1.352       .  A
C1641      C2139   1.435       .  S
N1642      C1643   1.351       .  A
C1643      N1644   1.356       .  A
C1643      C2145   1.429       .  S
C1645      N1646   1.359       .  A
C1645      N1650   1.363       .  A
N1646      C1647   1.356       .  A
C1647      N1648   1.351       .  A
C1647      C2136   1.428       .  S
N1648      C1649   1.351       .  A
C1649      N1650   1.362       .  A
C1649      C2130   1.434       .  S
C1651      N1652   1.359       .  A
C1651      N1656   1.363       .  A
C1651      C2128   1.443       .  S
N1652      C1653   1.357       .  A
C1653      N1654   1.351       .  A
C1653      C2889   1.429       .  S
N1654      C1655   1.351       .  A
C1655      N1656   1.362       .  A
C1655      C2126   1.434       .  S
C1657      N1658   1.359       .  A
C1657      N1662   1.363       .  A
C1657      C2117   1.441       .  S
N1658      C1659   1.356       .  A
C1659      N1660   1.351       .  A
C1659      C2121   1.428       .  S
N1660      C1661   1.351       .  A
C1661      N1662   1.362       .  A
C1661      C2119   1.434       .  S
C1663      N2420   1.359   1_545  A
C1663      N1668   1.363       .  A
C1663      C2114   1.443       .  S
N1664      C2419   1.359       .  A
N1664      C1665   1.357       .  A
C1665      N1666   1.351       .  A
C1665      C2124   1.428       .  S
N1666      C2423   1.351       .  A
C1667      N2422   1.351       .  A
C1667      N1668   1.362   1_565  A
C1667      C2871   1.435       .  S
C1669      N1670   1.359       .  A
C1669      N1674   1.363       .  A
C1669      C2105   1.443       .  S
N1670      C1671   1.357       .  A
C1671      N1672   1.351       .  A
C1671      C2112   1.429       .  S
N1672      C1673   1.351       .  A
C1673      N1674   1.362       .  A
C1673      C2107   1.434       .  S
C1675      N1676   1.359       .  A
C1675      N1680   1.362       .  A
C1675      C2101   1.441       .  S
N1676      C1677   1.357       .  A
C1677      N1678   1.351       .  A
C1677      C2865   1.429       .  S
N1678      C1679   1.351       .  A
C1679      N1680   1.361       .  A
C1679      C2103   1.433       .  S
C1681      N1682   1.362       .  A
C1681      N1686   1.359       .  A
C1681      C2096   1.443       .  S
N1682      C1683   1.361       .  A
C1683      N1684   1.352       .  A
C1683      C2093   1.434       .  S
N1684      C1685   1.351       .  A
C1685      N1686   1.357       .  A
C1685      C2097   1.430   1_545  S
C1687      N1688   1.359       .  A
C1687      N1692   1.363       .  A
C1687      C2091   1.443       .  S
N1688      C1689   1.357       .  A
C1689      N1690   1.352       .  A
C1689      C2100   1.430       .  S
N1690      C1691   1.352       .  A
C1691      N1692   1.362       .  A
C1691      C2090   1.436       .  S
C1693      N1694   1.359       .  A
C1693      N1698   1.363       .  A
C1693      C2083   1.442       .  S
N1694      C1695   1.357       .  A
C1695      N1696   1.351       .  A
C1695      C2088   1.429       .  S
N1696      C1697   1.351       .  A
C1697      N1698   1.362       .  A
C1697      C2082   1.434       .  S
C1699      N1700   1.359       .  A
C1699      N1704   1.363       .  A
C1699      C2077   1.443       .  S
C1701      C2085   1.430       .  S
N1702      C1703   1.352       .  A
C1703      N1704   1.362       .  A
C1703      C2079   1.434       .  S
C1705      N1706   1.359       .  A
C1705      N1710   1.363   1_554  A
C1705      C2069   1.441       .  S
N1706      C1707   1.356       .  A
C1707      N1708   1.351   1_554  A
C1707      C2073   1.429       .  S
N1708      C1709   1.351       .  A
C1709      N1710   1.362       .  A
C1709      C2071   1.435       .  S
C1711      N1712   1.359       .  A
C1711      N1716   1.363       .  A
C1711      C2068   1.443       .  S
N1712      C1713   1.357       .  A
C1713      N1714   1.351       .  A
C1713      C2076   1.429       .  S
N1714      C1715   1.352       .  A
C1715      N1716   1.362       .  A
C1715      C2065   1.435       .  S
C1717      N1718   1.363       .  A
C1717      N1722   1.359       .  A
C1717      C2060   1.442       .  S
N1718      C1719   1.362       .  A
C1719      N1720   1.351       .  A
C1719      C2057   1.434       .  S
N1720      C1721   1.351       .  A
C1721      N1722   1.357       .  A
C1721      C2061   1.428       .  S
C1723      N1724   1.359       .  A
C1723      N1728   1.363       .  A
C1723      C2055   1.441       .  S
C1725      N1726   1.351       .  A
C1725      C2064   1.428       .  S
C1727      N1728   1.362       .  A
O1729      C1740   1.295       .  A
O1729     Eu1765   2.484       .  S
O1730      C1741   1.290       .  A
O1730     Eu1764   2.463       .  S
O1731      C1742   1.290       .  A
O1731     Eu1737   2.461       .  S
O1732      C1743   1.295       .  A
O1732     Eu1737   2.484       .  S
O1733      C1743   1.285       .  A
O1733     Eu1767   2.430       .  S
O1734      C1742   1.292       .  A
O1734     Eu1766   2.472       .  S
O1735      C1741   1.292       .  A
O1735     Eu1737   2.471       .  S
O1736      C1740   1.285       .  A
O1736     Eu1737   2.431       .  S
Eu1737     O1747   2.357       .  S
Eu1737     O1739   2.359       .  S
Eu1737     O1738   2.342       .  S
Eu1737     O1745   2.355       .  S
O1738     Eu1767   2.358       .  S
O1738     Eu1764   2.346       .  S
O1739     Eu1765   2.341       .  S
O1739     Eu1766   2.345       .  S
C1740      C2263   1.434       .  S
C1741      C2185   1.438       .  S
C1742      C2251   1.442       .  S
C1743      C2108   1.433       .  S
H1744      O1745   0.965       .  S
O1745     Eu1766   2.347       .  S
O1745     Eu1764   2.368       .  S
H1746      O1747   0.966       .  S
O1747     Eu1765   2.358       .  S
O1747     Eu1767   2.358       .  S
O1748      C1771   1.295       .  A
O1748     Eu1764   2.488       .  S
O1749      C1772   1.289       .  A
O1749     Eu1765   2.459       .  S
O1750      C1773   1.294       .  A
O1750     Eu1766   2.482       .  S
O1751      C1774   1.289       .  A
O1751     Eu1767   2.459       .  S
O1752      C1775   1.295       .  A
O1752     Eu1767   2.483       .  S
O1753      C1776   1.290       .  A
O1753     Eu1766   2.461       .  S
O1754      C1777   1.295       .  A
O1754     Eu1768   2.486       .  S
O1755      C1778   1.290       .  A
O1755     Eu1768   2.463       .  S
O1756      C1777   1.285       .  A
O1756     Eu1766   2.432       .  S
O1757      C1778   1.292       .  A
O1757     Eu1767   2.473       .  S
O1758      C1773   1.285       .  A
O1758     Eu1764   2.432       .  S
O1759      C1776   1.293       .  A
O1759     Eu1765   2.475       .  S
O1760      C1775   1.285       .  A
O1760     Eu1765   2.431       .  S
O1761      C1774   1.292       .  A
O1761     Eu1764   2.473       .  S
O1762      C1771   1.285       .  A
O1762     Eu1768   2.429       .  S
O1763      C1772   1.292       .  A
O1763     Eu1768   2.473       .  S
Eu1764     O1782   2.346       .  S
Eu1764     O1770   2.352       .  S
Eu1765     O1769   2.360       .  S
Eu1765     O1780   2.354       .  S
Eu1766     O1780   2.367       .  S
Eu1766     O1770   2.352       .  S
Eu1767     O1769   2.341       .  S
Eu1767     O1782   2.354       .  S
Eu1768     O1769   2.345       .  S
Eu1768     O1780   2.346       .  S
Eu1768     O1782   2.367       .  S
Eu1768     O1770   2.353       .  S
C1771      C2226   1.434       .  S
C1772      C2190   1.441       .  S
C1773      C2154   1.432       .  S
C1774      C2059   1.441       .  S
C1775      C2174   1.433       .  S
C1776      C2056   1.439       .  S
C1777      C2072   1.434       .  S
C1778      C2245   1.440       .  S
H1779      O1780   0.964       .  S
H1781      O1782   0.964       .  S
O1783      C1794   1.295       .  A
O1783     Eu1819   2.485       .  S
O1784      C1795   1.290       .  A
O1784     Eu1818   2.461       .  S
O1785      C1796   1.294       .  A
O1785     Eu1791   2.482       .  S
O1786      C1797   1.290       .  A
O1787      C1797   1.292       .  A
O1787     Eu1821   2.475       .  S
O1788      C1796   1.285       .  A
O1788     Eu2576   2.432       .  S
O1789      C1795   1.292       .  A
O1789     Eu1791   2.473   1_554  S
O1790      C1794   1.285       .  A
Eu1791     O1793   2.352       .  S
Eu1791     O1792   2.345   1_556  S
Eu1791     O1799   2.347   1_556  S
O1792     Eu1818   2.358       .  S
O1793     Eu2576   2.352       .  S
C1794      C2248   1.434       .  S
C1795      C2067   1.442       .  S
C1796      C2188   1.432       .  S
C1797      C2228   1.440       .  S
H1798      O1799   0.965       .  S
O1799     Eu2576   2.368   1_554  S
O1799     Eu1818   2.356       .  S
H1800      O1801   0.965       .  S
O1801     Eu1819   2.346   1_554  S
O1801     Eu1821   2.354       .  S
O1802      C1825   1.295       .  A
O1802     Eu2574   2.484   1_545  S
O1803      C1826   1.290       .  A
O1803     Eu2575   2.461   1_544  S
O1804      C1827   1.290       .  A
O1804     Eu1820   2.464   1_554  S
O1805     Eu1821   2.483       .  S
O1806      C1829   1.289       .  A
O1806     Eu1821   2.458       .  S
O1807      C1830   1.295       .  A
O1807     Eu1820   2.486       .  S
O1808      C1831   1.290       .  A
O1808     Eu1822   2.460       .  S
O1809      C2588   1.294   1_545  A
O1810      C1831   1.292       .  A
O1810     Eu1820   2.471   1_554  S
O1811      C1832   1.285       .  A
O1811     Eu1821   2.431       .  S
O1812      C2583   1.291       .  A
O1812     Eu1818   2.469       .  S
O1813     Eu2575   2.432   1_545  S
O1814      C1829   1.292       .  A
O1814     Eu1819   2.473   1_554  S
O1815      C1828   1.285       .  A
O1815     Eu1818   2.432       .  S
O1816      C1825   1.285       .  A
O1816     Eu1822   2.430       .  S
O1817      C1826   1.292       .  A
Eu1818     O2558   2.484       .  S
Eu1818     O1836   2.357       .  S
Eu1818     O2580   2.342       .  S
Eu1819     O2559   2.461   1_556  S
Eu1819     O2569   2.432       .  S
Eu1819     O1823   2.346   1_556  S
Eu1820     O2544   2.432       .  S
Eu1820     O2549   2.352   1_545  S
Eu1820     O2555   2.368   1_546  S
Eu1820     O1834   2.347   1_556  S
Eu1820     O1824   2.345   1_556  S
Eu1821     O1823   2.360       .  S
Eu1822     O1834   2.353       .  S
Eu1822     O2592   2.358   1_545  S
Eu1822     O1824   2.359       .  S
O1824     Eu2574   2.342   1_545  S
C1825      C2202   1.433       .  S
C1826      C2070   1.439       .  S
C1827      C2155   1.438       .  S
C1827      O2568   1.291       .  A
C1828      C2080   1.434       .  S
C1829      C2150   1.441       .  S
C1830      C2054   1.434       .  S
C1831      C2221   1.441       .  S
C1832      C2125   1.433       .  S
C1832      O2565   1.294       .  A
H1833      O1834   0.964       .  S
H1835      O1836   0.966       .  S
O1836     Eu2578   2.358       .  S
O1837      C1848   1.295       .  A
O1837     Eu1873   2.484       .  S
O1838      C1849   1.290       .  A
O1838     Eu1872   2.462       .  S
O1839      C1850   1.289       .  A
O1839     Eu1845   2.460       .  S
O1840      C1851   1.295       .  A
O1840     Eu1845   2.484       .  S
O1841      C1851   1.285       .  A
O1841     Eu1875   2.432       .  S
O1842      C1850   1.292       .  A
O1842     Eu1874   2.473       .  S
O1843      C1849   1.293       .  A
O1843     Eu1845   2.475       .  S
O1844      C1848   1.285       .  A
O1844     Eu1845   2.431       .  S
Eu1845     O1855   2.359       .  S
Eu1845     O1847   2.360       .  S
Eu1845     O1846   2.342       .  S
Eu1845     O1853   2.354       .  S
O1846     Eu1875   2.359       .  S
O1846     Eu1872   2.346       .  S
O1847     Eu1873   2.343       .  S
O1847     Eu1874   2.347       .  S
C1848      C2239   1.433       .  S
C1849      C2118   1.440       .  S
C1850      C2216   1.442       .  S
C1851      C2167   1.434       .  S
H1852      O1853   0.964       .  S
O1853     Eu1874   2.344       .  S
O1853     Eu1872   2.367       .  S
H1854      O1855   0.966       .  S
O1855     Eu1873   2.358       .  S
O1855     Eu1875   2.358       .  S
O1856      C1879   1.295       .  A
O1856     Eu1872   2.485       .  S
O1857      C1880   1.289       .  A
O1857     Eu1873   2.458       .  S
O1858      C1881   1.295       .  A
O1858     Eu1874   2.486       .  S
O1859      C1882   1.289       .  A
O1859     Eu1875   2.459       .  S
O1860      C1883   1.294       .  A
O1860     Eu1875   2.481       .  S
O1861      C1884   1.290       .  A
O1861     Eu1874   2.461       .  S
O1862      C1885   1.295       .  A
O1862     Eu1876   2.488       .  S
O1863      C1886   1.290       .  A
O1863     Eu1876   2.464       .  S
O1864      C1885   1.285       .  A
O1864     Eu1874   2.430       .  S
O1865      C1886   1.292       .  A
O1865     Eu1875   2.472       .  S
O1866      C1881   1.285       .  A
O1866     Eu1872   2.431       .  S
O1867      C1884   1.293       .  A
O1867     Eu1873   2.475       .  S
O1868      C1883   1.285       .  A
O1868     Eu1873   2.434       .  S
O1869      C1882   1.292       .  A
O1869     Eu1872   2.473       .  S
O1870      C1879   1.285       .  A
O1870     Eu1876   2.431       .  S
O1871      C1880   1.293       .  A
O1871     Eu1876   2.475       .  S
Eu1872     O1890   2.345       .  S
Eu1872     O1878   2.353       .  S
Eu1873     O1877   2.359       .  S
Eu1873     O1888   2.355       .  S
Eu1874     O1888   2.368       .  S
Eu1874     O1878   2.353       .  S
Eu1875     O1877   2.342       .  S
Eu1875     O1890   2.354       .  S
Eu1876     O1877   2.346       .  S
Eu1876     O1888   2.346       .  S
Eu1876     O1890   2.368       .  S
Eu1876     O1878   2.353       .  S
C1879      C2197   1.433       .  S
C1880      C2113   1.441       .  S
C1881      C2081   1.434       .  S
C1882      C2143   1.441       .  S
C1883      C2094   1.434       .  S
C1884      C2137   1.440       .  S
C1885      C2129   1.434       .  S
C1886      C2210   1.439       .  S
H1887      O1888   0.964       .  S
H1889      O1890   0.964       .  S
O1891      C1902   1.289       .  A
O1891     Eu1927   2.460       .  S
O1892      C1903   1.295       .  A
O1892     Eu1926   2.485       .  S
O1893      C1904   1.290       .  A
O1893     Eu1899   2.462       .  S
O1894      C1905   1.295       .  A
O1894     Eu1899   2.488       .  S
O1895      C1905   1.285       .  A
O1895     Eu1929   2.433       .  S
O1896      C1904   1.292       .  A
O1896     Eu1928   2.474       .  S
O1897      C1903   1.285       .  A
O1897     Eu1899   2.431       .  S
O1898      C1902   1.292       .  A
O1898     Eu1899   2.473       .  S
Eu1899     O1909   2.346       .  S
Eu1899     O1901   2.346       .  S
Eu1899     O1900   2.352       .  S
Eu1899     O1907   2.368       .  S
O1900     Eu1929   2.352       .  S
O1900     Eu1926   2.352       .  S
O1901     Eu1927   2.359       .  S
O1901     Eu1928   2.341       .  S
C1902      C2261   1.442       .  S
C1903      C2162   1.433       .  S
C1904      C2177   1.440       .  S
C1905      C2089   1.436       .  S
H1906      O1907   0.964       .  S
O1907     Eu1928   2.355       .  S
O1907     Eu1926   2.347       .  S
H1908      O1909   0.964       .  S
O1909     Eu1927   2.356       .  S
O1909     Eu1929   2.368       .  S
O1910      C1933   1.290       .  A
O1910     Eu1926   2.461       .  S
O1911      C1934   1.295       .  A
O1911     Eu1927   2.484       .  S
O1912      C1935   1.289       .  A
O1912     Eu1928   2.459       .  S
O1913      C1936   1.295       .  A
O1913     Eu1929   2.487       .  S
O1914      C1937   1.290       .  A
O1914     Eu1929   2.464       .  S
O1915      C1938   1.295       .  A
O1915     Eu1928   2.484       .  S
O1916      C1939   1.295       .  A
O1916     Eu1930   2.485       .  S
O1917      C1940   1.290       .  A
O1917     Eu1930   2.461       .  S
O1918      C1939   1.285       .  A
O1918     Eu1928   2.431       .  S
O1919      C1940   1.292       .  A
O1919     Eu1929   2.473       .  S
O1920      C1935   1.292       .  A
O1920     Eu1926   2.474       .  S
O1921      C1938   1.285       .  A
O1921     Eu1927   2.431       .  S
O1922      C1937   1.292       .  A
O1922     Eu1927   2.472       .  S
O1923      C1936   1.285       .  A
O1923     Eu1926   2.432       .  S
O1924      C1933   1.292       .  A
O1924     Eu1930   2.475       .  S
O1925      C1934   1.285       .  A
O1925     Eu1930   2.431       .  S
Eu1926     O1944   2.368       .  S
Eu1926     O1932   2.345       .  S
Eu1927     O1931   2.342       .  S
Eu1927     O1942   2.358       .  S
Eu1928     O1942   2.358       .  S
Eu1928     O1932   2.360       .  S
Eu1929     O1931   2.346       .  S
Eu1929     O1944   2.348       .  S
Eu1930     O1931   2.360       .  S
Eu1930     O1942   2.358       .  S
Eu1930     O1944   2.355       .  S
Eu1930     O1932   2.342       .  S
C1933      C2257   1.440       .  S
C1934      C2191   1.433       .  S
C1935      C2106   1.442       .  S
C1936      C2234   1.435       .  S
C1937      C2102   1.439       .  S
C1938      C2250   1.434       .  S
C1939      C2058   1.434       .  S
C1940      C2176   1.442       .  S
H1941      O1942   0.966       .  S
H1943      O1944   0.965       .  S
O1945      C1956   1.295       .  A
O1945     Eu1981   2.484       .  S
O1946      C1957   1.290       .  A
O1946     Eu1980   2.460       .  S
O1947      C1958   1.289       .  A
O1947     Eu1953   2.459       .  S
O1948      C1959   1.295       .  A
O1948     Eu1953   2.484       .  S
O1949      C1959   1.285       .  A
O1949     Eu1983   2.433       .  S
O1950      C1958   1.292       .  A
O1950     Eu1982   2.473       .  S
O1951      C1957   1.293       .  A
O1951     Eu1953   2.475       .  S
O1952      C1956   1.285       .  A
O1952     Eu1953   2.431       .  S
Eu1953     O1963   2.358       .  S
Eu1953     O1955   2.360       .  S
Eu1953     O1954   2.342       .  S
Eu1953     O1961   2.354       .  S
O1954     Eu1983   2.359       .  S
O1954     Eu1980   2.347       .  S
O1955     Eu1981   2.343       .  S
O1955     Eu1982   2.346       .  S
C1956      C2223   1.433       .  S
C1957      C2131   1.439       .  S
C1958      C2204   1.441       .  S
C1959      C2066   1.434       .  S
H1960      O1961   0.964       .  S
O1961     Eu1982   2.345       .  S
O1961     Eu1980   2.366       .  S
H1962      O1963   0.966       .  S
O1963     Eu1981   2.358       .  S
O1963     Eu1983   2.357       .  S
O1964      C1987   1.295       .  A
O1964     Eu1980   2.484       .  S
O1965      C1988   1.290       .  A
O1965     Eu1981   2.461       .  S
O1966      C1989   1.295       .  A
O1966     Eu1982   2.486       .  S
O1967      C1990   1.290       .  A
O1967     Eu1983   2.461       .  S
O1968      C1991   1.295       .  A
O1968     Eu1983   2.486       .  S
O1969      C1992   1.290       .  A
O1969     Eu1982   2.462       .  S
O1970      C1993   1.295       .  A
O1970     Eu1984   2.487       .  S
O1971      C1994   1.290       .  A
O1971     Eu1984   2.463       .  S
O1972      C1993   1.285       .  A
O1972     Eu1982   2.430       .  S
O1973      C1994   1.292       .  A
O1973     Eu1983   2.473       .  S
O1974      C1989   1.285       .  A
O1974     Eu1980   2.433       .  S
O1975      C1992   1.292       .  A
O1975     Eu1981   2.475       .  S
O1976      C1991   1.285       .  A
O1976     Eu1981   2.429       .  S
O1977      C1990   1.292       .  A
O1977     Eu1980   2.472       .  S
O1978      C1987   1.285       .  A
O1978     Eu1984   2.433       .  S
O1979      C1988   1.292       .  A
O1979     Eu1984   2.473       .  S
Eu1980     O1998   2.346       .  S
Eu1980     O1986   2.352       .  S
Eu1981     O1985   2.359       .  S
Eu1981     O1996   2.354       .  S
Eu1982     O1996   2.368       .  S
Eu1982     O1986   2.353       .  S
Eu1983     O1985   2.342       .  S
Eu1983     O1998   2.355       .  S
Eu1984     O1985   2.346       .  S
Eu1984     O1996   2.347       .  S
Eu1984     O1998   2.367       .  S
Eu1984     O1986   2.353       .  S
C1987      C2211   1.433       .  S
C1988      C2127   1.442       .  S
C1989      C2140   1.435       .  S
C1990      C2078   1.442       .  S
C1991      C2152   1.433       .  S
C1992      C2084   1.440       .  S
C1993      C2120   1.434       .  S
C1994      C2199   1.439       .  S
H1995      O1996   0.964       .  S
H1997      O1998   0.964       .  S
O1999     Eu2791   2.486   1_545  S
O2000      C2011   1.290       .  A
O2000     Eu2790   2.461   1_545  S
O2001      C2768   1.294   1_545  A
O2001     Eu2007   2.482       .  S
O2002      C2013   1.290       .  A
O2002     Eu2007   2.463       .  S
O2003      C2013   1.292       .  A
O2003     Eu2037   2.474       .  S
O2004      C2012   1.285       .  A
O2004     Eu2036   2.433       .  S
O2005      C2011   1.292       .  A
O2005     Eu2007   2.471       .  S
O2006      C2010   1.285       .  A
O2006     Eu2007   2.433       .  S
Eu2007     O2017   2.367       .  S
Eu2007     O2765   2.352   1_545  S
Eu2007     O2008   2.345       .  S
Eu2007     O2771   2.349   1_545  S
O2008     Eu2037   2.342       .  S
O2008     Eu2790   2.360   1_545  S
O2009     Eu2763   2.352       .  S
O2009     Eu2036   2.352       .  S
C2010      C2260   1.434       .  S
C2011      C2166   1.441       .  S
C2012      C2104   1.433       .  S
C2012      O2757   1.294       .  A
C2013      C2235   1.440       .  S
H2014      O2015   0.965       .  S
O2015     Eu2763   2.349       .  S
O2015     Eu2036   2.367       .  S
O2015     Eu2034   2.355       .  S
H2016      O2017   0.964       .  S
O2017     Eu2037   2.355       .  S
O2018      C2041   1.295       .  A
O2018     Eu2034   2.485       .  S
O2019      C2042   1.290       .  A
O2019     Eu2035   2.463       .  S
O2020      C2043   1.290       .  A
O2020     Eu2036   2.463       .  S
O2021      C2044   1.295       .  A
O2021     Eu2037   2.485       .  S
O2022      C2045   1.290       .  A
O2023      C2046   1.295       .  A
O2024      C2047   1.289       .  A
O2024     Eu2038   2.460       .  S
O2025      C2048   1.295       .  A
O2025     Eu2038   2.486       .  S
O2026      C2047   1.292       .  A
O2027      C2804   1.285   1_545  A
O2028      C2043   1.293       .  A
O2028     Eu2034   2.476       .  S
O2029      C2046   1.285       .  A
O2029     Eu2035   2.429       .  S
O2030      C2045   1.292       .  A
O2030     Eu2791   2.472   1_545  S
O2031      C2044   1.285       .  A
O2031     Eu2790   2.432   1_545  S
O2032     Eu2038   2.432       .  S
O2033      C2042   1.292       .  A
O2033     Eu2038   2.474       .  S
Eu2034     O2756   2.461       .  S
Eu2034     O2787   2.432       .  S
Eu2034     O2764   2.360       .  S
Eu2034     O2052   2.359       .  S
Eu2034     O2040   2.342       .  S
Eu2035     O2755   2.486       .  S
Eu2035     O2786   2.472       .  S
Eu2035     O2039   2.345       .  S
Eu2035     O2050   2.368       .  S
Eu2036     O2040   2.346       .  S
Eu2037     O2808   2.358   1_545  S
Eu2038     O2039   2.341       .  S
Eu2038     O2050   2.356       .  S
C2041      C2214   1.434       .  S
C2042      C2163   1.440       .  S
C2043      C2092   1.441       .  S
C2044      C2141   1.434       .  S
C2045      C2095   1.441       .  S
C2046      C2180   1.433       .  S
C2047      C2237   1.441       .  S
C2048      C2116   1.434       .  S
C2048      O2783   1.285       .  A
H2049      O2050   0.964       .  S
H2051      O2052   0.966       .  S
O2052     Eu2793   2.358       .  S
C2053      C2054   1.205       .  T
C2055      C2056   1.209       .  T
C2057      C2058   1.205       .  T
C2059      C2060   1.210       .  T
C2061      C2062   1.201       .  T
C2062      C2063   1.405       .  S
C2063      C2064   1.201       .  T
C2065      C2066   1.206       .  T
C2067      C2068   1.210       .  T
C2069      C2070   1.209       .  T
C2071      C2072   1.206       .  T
C2074      C2075   1.406       .  S
C2075      C2076   1.202       .  T
C2077      C2078   1.210       .  T
C2079      C2080   1.205       .  T
C2081      C2082   1.206       .  T
C2083      C2084   1.209       .  T
C2085      C2086   1.202       .  T
C2086      C2087   1.407       .  S
C2087      C2088   1.202       .  T
C2089      C2090   1.207       .  T
C2091      C2092   1.210       .  T
C2093      C2094   1.205       .  T
C2095      C2096   1.210       .  T
C2097      C2854   1.203       .  T
C2098      C2853   1.203       .  T
C2098      C2099   1.407       .  S
C2099      C2100   1.202       .  T
C2101      C2102   1.209       .  T
C2103      C2104   1.205       .  T
C2105      C2106   1.210       .  T
C2107      C2108   1.205       .  T
C2109      C2433   1.429   1_545  S
C2109      C2110   1.202       .  T
C2110      C2111   1.406       .  S
C2111      C2112   1.202       .  T
C2113      C2114   1.210       .  T
C2115      C2423   1.435       .  S
C2115      C2116   1.206       .  T
C2117      C2118   1.209       .  T
C2119      C2120   1.205       .  T
C2121      C2122   1.201       .  T
C2122      C2123   1.405       .  S
C2123      C2124   1.202       .  T
C2125      C2126   1.205       .  T
C2127      C2128   1.210       .  T
C2129      C2130   1.206       .  T
C2131      C2132   1.209       .  T
C2133      C2409   1.429   1_545  S
C2133      C2134   1.202       .  T
C2134      C2135   1.406       .  S
C2135      C2136   1.202       .  T
C2139      C2140   1.206       .  T
C2141      C2142   1.206       .  T
C2143      C2144   1.210       .  T
C2145      C2146   1.202       .  T
C2146      C2147   1.406       .  S
C2147      C2148   1.202       .  T
C2149      C2150   1.210       .  T
C2151      C2152   1.205       .  T
C2153      C2154   1.204       .  T
C2155      C2156   1.208       .  T
C2157      C2158   1.202       .  T
C2158      C2159   1.406       .  S
C2159      C2916   1.202       .  T
C2160      C2915   1.202   1_545  T
C2161      C2162   1.205       .  T
C2163      C2164   1.209       .  T
C2165      C2166   1.210       .  T
C2167      C2168   1.205       .  T
C2169      C2170   1.202       .  T
C2170      C2171   1.406       .  S
C2171      C2172   1.202       .  T
C2173      C2174   1.205       .  T
C2175      C2176   1.210       .  T
C2177      C2178   1.209       .  T
C2179      C2180   1.205       .  T
C2181      C2182   1.202       .  T
C2182      C2183   1.406       .  S
C2183      C2184   1.202       .  T
C2185      C2186   1.208       .  T
C2187      C2349   1.433       .  S
C2187      C2188   1.204       .  T
C2191      C2192   1.205       .  T
C2193      C2194   1.202       .  T
C2194      C2195   1.406       .  S
C2195      C2196   1.202       .  T
C2197      C2198   1.205       .  T
C2199      C2200   1.209       .  T
C2200      C2335   1.441       .  S
C2201      C2202   1.205       .  T
C2203      C2204   1.210       .  T
C2205      C2206   1.202       .  T
C2206      C2207   1.406       .  S
C2207      C2208   1.202       .  T
C2209      C2966   1.209       .  T
C2210      C2965   1.209   1_545  T
C2211      C2212   1.205       .  T
C2213      C2214   1.206       .  T
C2215      C2216   1.210       .  T
C2217      C2218   1.202       .  T
C2218      C2219   1.407       .  S
C2219      C2220   1.202       .  T
C2221      C2222   1.210       .  T
C2223      C2224   1.205       .  T
C2225      C2226   1.205       .  T
C2227      C2228   1.209       .  T
C2229      C2230   1.201       .  T
C2230      C2231   1.405       .  S
C2231      C2232   1.202       .  T
C2233      C2234   1.206       .  T
C2235      C2236   1.209       .  T
C2237      C2238   1.210       .  T
C2239      C2240   1.205       .  T
C2242      C2243   1.406       .  S
C2243      C2244   1.202       .  T
C2245      C2246   1.209       .  T
C2247      C2248   1.205       .  T
C2249      C2250   1.205       .  T
C2251      C3008   1.210   1_545  T
C2252      C3007   1.210       .  T
C2253      C2254   1.202       .  T
C2254      C2255   1.407       .  S
C2255      C2256   1.202       .  T
C2257      C2258   1.209       .  T
C2259      C2260   1.206       .  T
C2261      C2262   1.210       .  T
C2262      C2269   1.443       .  S
C2263      C2264   1.205       .  T
C2265      C2266   1.202       .  T
C2266      C2267   1.407       .  S
C2267      C2268   1.202       .  T
C2269      N2270   1.359       .  A
C2269      N2274   1.363       .  A
N2270      C2271   1.357       .  A
C2271      N2272   1.351       .  A
C2271      C3024   1.430       .  S
N2272      C2273   1.351       .  A
C2273      N2274   1.362       .  A
C2273      C3020   1.434       .  S
C2275      N2276   1.362       .  A
C2275      N2280   1.359       .  A
C2275      C3014   1.441       .  S
N2276      C2277   1.362       .  A
C2277      N2278   1.352       .  A
C2277      C3015   1.435       .  S
C2279      C3021   1.429       .  S
C2281      N2282   1.363       .  A
C2281      N2286   1.359       .  A
C2281      C3008   1.443       .  S
N2282      C2283   1.362       .  A
C2283      N2284   1.351       .  A
C2283      C3005   1.434       .  S
N2284      C2285   1.351       .  A
C2285      N2286   1.357       .  A
C2285      C3009   1.430       .  S
C2287      N2288   1.359       .  A
C2287      N2292   1.362       .  A
C2287      C3002   1.442       .  S
N2288      C2289   1.357       .  A
C2289      N2290   1.351       .  A
C2289      C3012   1.429       .  S
N2290      C2291   1.351       .  A
C2291      N2292   1.361       .  A
C2291      C3003   1.434       .  S
C2293      N2294   1.359       .  A
C2293      N2298   1.363       .  A
C2293      C2994   1.443       .  S
N2294      C2295   1.357       .  A
C2295      N2296   1.351       .  A
C2295      C2997   1.429       .  S
N2296      C2297   1.351       .  A
C2297      N2298   1.362       .  A
C2297      C2996   1.434       .  S
C2299      N2300   1.363       .  A
C2299      N2304   1.359       .  A
C2299      C2992   1.442       .  S
N2300      C2301   1.362       .  A
C2301      N2302   1.351       .  A
C2301      C2989   1.435       .  S
N2302      C2303   1.351       .  A
C2303      N2304   1.357       .  A
C2303      C3000   1.429       .  S
C2305      N2306   1.363   1_554  A
C2305      N2310   1.359       .  A
C2305      C2983   1.441       .  S
N2306      C2307   1.362       .  A
C2307      N2308   1.351       .  A
C2307      C2981   1.434       .  S
N2308      C2309   1.351   1_556  A
C2309      N2310   1.357       .  A
C2309      C2985   1.428       .  S
C2311      N2312   1.363       .  A
C2311      N2316   1.359       .  A
C2311      C2978   1.442       .  S
N2312      C2313   1.361       .  A
C2313      N2314   1.351       .  A
C2313      C2980   1.433       .  S
N2314      C2315   1.351       .  A
C2315      N2316   1.357       .  A
C2315      C2988   1.428       .  S
C2317      N2318   1.363       .  A
C2317      N2322   1.359       .  A
C2317      C2971   1.443       .  S
N2318      C2319   1.362       .  A
N2320      C2321   1.351       .  A
C2321      C2973   1.430       .  S
C2323      N2324   1.359       .  A
C2323      N2328   1.362       .  A
C2323      C2965   1.441       .  S
N2324      C2325   1.357       .  A
C2325      N2326   1.351       .  A
C2325      C2976   1.430       .  S
N2326      C2327   1.352       .  A
C2327      N2328   1.361       .  A
C2327      C2968   1.434       .  S
C2329      N2330   1.363       .  A
C2329      N2334   1.359       .  A
C2329      C2959   1.442       .  S
N2330      C2331   1.362       .  A
C2331      N2332   1.351       .  A
C2331      C2957   1.434       .  S
N2332      C2333   1.351       .  A
C2333      N2334   1.357       .  A
C2333      C2964   1.428       .  S
C2335      N2336   1.359       .  A
C2335      N2340   1.362       .  A
N2336      C2337   1.357       .  A
C2337      N2338   1.351       .  A
C2337      C2961   1.428       .  S
N2338      C2339   1.351       .  A
C2339      N2340   1.361       .  A
C2339      C2954   1.434       .  S
C2341      N2342   1.363       .  A
C2341      N2346   1.359       .  A
C2341      C2945   1.442       .  S
N2342      C2343   1.362       .  A
C2343      N2344   1.351       .  A
C2343      C2948   1.434       .  S
N2344      C2345   1.351       .  A
C2345      N2346   1.357       .  A
C2345      C2949   1.428       .  S
C2347      N2348   1.362       .  A
C2347      C2942   1.440       .  S
N2348      C2349   1.361       .  A
N2350      C2351   1.351       .  A
C2351      N2352   1.357       .  A
C2351      C2952   1.428       .  S
C2353      N2354   1.363       .  A
C2353      N2358   1.359       .  A
C2353      C2934   1.441       .  S
N2354      C2355   1.362       .  A
C2355      N2356   1.351       .  A
C2355      C2935   1.434       .  S
N2356      C2357   1.351       .  A
C2357      N2358   1.357       .  A
C2357      C2937   1.429       .  S
C2359      N2360   1.359       .  A
C2359      N2364   1.363       .  A
N2360      C2361   1.357       .  A
C2361      N2362   1.351       .  A
C2361      C2940   1.429       .  S
N2362      C2363   1.351       .  A
C2363      N2364   1.362       .  A
C2363      C2929   1.434       .  S
C2365      N2366   1.363       .  A
C2365      N2370   1.359       .  A
C2365      C2921   1.442       .  S
N2366      C2367   1.362       .  A
C2367      N2368   1.351       .  A
C2367      C2924   1.434       .  S
N2368      C2369   1.351       .  A
C2369      N2370   1.357       .  A
C2369      C2925   1.430       .  S
C2371      N2372   1.359       .  A
C2371      N2376   1.362       .  A
C2371      C2920   1.442       .  S
N2372      C2373   1.357       .  A
C2373      N2374   1.351       .  A
C2373      C2928   1.429       .  S
N2374      C2375   1.351       .  A
C2375      N2376   1.361       .  A
C2375      C2917   1.434       .  S
C2377      N2378   1.359       .  A
C2377      N2382   1.361   1_554  A
C2377      C2912   1.440       .  S
N2378      C2379   1.357       .  A
C2379      N2380   1.351   1_554  A
C2379      C2916   1.428       .  S
N2380      C2381   1.351       .  A
C2381      N2382   1.360       .  A
C2381      C2909   1.432       .  S
C2383      N2384   1.363       .  A
C2383      N2388   1.359       .  A
C2383      C2905   1.442       .  S
N2384      C2385   1.362       .  A
C2385      N2386   1.351       .  A
C2385      C2907   1.434       .  S
N2386      C2387   1.351       .  A
C2387      N2388   1.357       .  A
C2387      C2913   1.429       .  S
C2389      N2390   1.363       .  A
C2389      N2394   1.359       .  A
C2389      C2900   1.443       .  S
N2390      C2391   1.362       .  A
C2391      N2392   1.352       .  A
C2391      C2898   1.434       .  S
N2392      C2393   1.351       .  A
C2393      N2394   1.357       .  A
C2393      C2904   1.429       .  S
C2395      N2396   1.363       .  A
C2395      N2400   1.358       .  A
C2395      C2894   1.441       .  S
N2396      C2397   1.362       .  A
C2397      N2398   1.352       .  A
C2397      C2895   1.435       .  S
N2398      C2399   1.351       .  A
C2399      N2400   1.356       .  A
C2399      C2901   1.429       .  S
C2401      N2402   1.359       .  A
C2401      N2406   1.363       .  A
N2402      C2403   1.356       .  A
C2403      N2404   1.351       .  A
C2403      C2892   1.428       .  S
N2404      C2405   1.351       .  A
C2405      N2406   1.362       .  A
C2405      C2886   1.434       .  S
C2407      N2408   1.359       .  A
C2407      N2412   1.363       .  A
C2407      C2884   1.443       .  S
N2408      C2409   1.357       .  A
C2409      N2410   1.351       .  A
N2410      C2411   1.351       .  A
C2411      N2412   1.362       .  A
C2411      C2882   1.434       .  S
C2413      N2414   1.359       .  A
C2413      N2418   1.363       .  A
C2413      C2873   1.441       .  S
N2414      C2415   1.356       .  A
C2415      N2416   1.351       .  A
C2415      C2877   1.428       .  S
N2416      C2417   1.351       .  A
C2417      N2418   1.362       .  A
C2417      C2875   1.434       .  S
C2419      N2424   1.363       .  A
C2419      C2870   1.443       .  S
N2420      C2421   1.357       .  A
C2421      N2422   1.351       .  A
C2421      C2880   1.428       .  S
C2423      N2424   1.362       .  A
C2425      N2426   1.359       .  A
C2425      N2430   1.363       .  A
C2425      C2861   1.443       .  S
N2426      C2427   1.357       .  A
C2427      N2428   1.351       .  A
C2427      C2868   1.429       .  S
N2428      C2429   1.351       .  A
C2429      N2430   1.362       .  A
C2429      C2863   1.434       .  S
C2431      N2432   1.359       .  A
C2431      N2436   1.362       .  A
C2431      C2857   1.441       .  S
N2432      C2433   1.357       .  A
C2433      N2434   1.351       .  A
N2434      C2435   1.351       .  A
C2435      N2436   1.361       .  A
C2435      C2859   1.433       .  S
C2437      N2438   1.362       .  A
C2437      N2442   1.359       .  A
C2437      C2852   1.443       .  S
N2438      C2439   1.361       .  A
C2439      N2440   1.352       .  A
C2439      C2849   1.434       .  S
N2440      C2441   1.351       .  A
C2441      N2442   1.357       .  A
C2441      C2853   1.430       .  S
C2443      N2444   1.359       .  A
C2443      N2448   1.363       .  A
C2443      C2847   1.443       .  S
N2444      C2445   1.357       .  A
C2445      N2446   1.352       .  A
C2445      C2856   1.430       .  S
N2446      C2447   1.352       .  A
C2447      N2448   1.362       .  A
C2447      C2846   1.436       .  S
C2449      N2450   1.359       .  A
C2449      N2454   1.363       .  A
C2449      C2839   1.442       .  S
N2450      C2451   1.357       .  A
C2451      N2452   1.351       .  A
C2451      C2844   1.429       .  S
N2452      C2453   1.351       .  A
C2453      N2454   1.362       .  A
C2453      C2838   1.434       .  S
C2455      N2456   1.359       .  A
C2455      N2460   1.363       .  A
C2455      C2833   1.443       .  S
C2457      C2841   1.430       .  S
N2458      C2459   1.352       .  A
C2459      N2460   1.362       .  A
C2459      C2835   1.434       .  S
C2461      N2462   1.359       .  A
C2461      N2466   1.363   1_554  A
C2461      C2825   1.441       .  S
N2462      C2463   1.356       .  A
C2463      N2464   1.351   1_554  A
C2463      C2829   1.429       .  S
N2464      C2465   1.351       .  A
C2465      N2466   1.362       .  A
C2465      C2827   1.435       .  S
C2467      N2468   1.359       .  A
C2467      N2472   1.363       .  A
C2467      C2824   1.443       .  S
N2468      C2469   1.357       .  A
C2469      N2470   1.351       .  A
C2469      C2832   1.429       .  S
N2470      C2471   1.352       .  A
C2471      N2472   1.362       .  A
C2471      C2821   1.435       .  S
C2473      N2474   1.363       .  A
C2473      N2478   1.359       .  A
C2473      C2816   1.442       .  S
N2474      C2475   1.362       .  A
C2475      N2476   1.351       .  A
C2475      C2813   1.434       .  S
N2476      C2477   1.351       .  A
C2477      N2478   1.357       .  A
C2477      C2817   1.428       .  S
C2479      N2480   1.359       .  A
C2479      N2484   1.363       .  A
C2479      C2811   1.441       .  S
C2481      N2482   1.351       .  A
C2481      C2820   1.428       .  S
C2483      N2484   1.362       .  A
O2485      C2496   1.295       .  A
O2485     Eu2521   2.484       .  S
O2486      C2497   1.290       .  A
O2486     Eu2520   2.463       .  S
O2487      C2498   1.290       .  A
O2487     Eu2493   2.461       .  S
O2488      C2499   1.295       .  A
O2488     Eu2493   2.484       .  S
O2489      C2499   1.285       .  A
O2489     Eu2523   2.430       .  S
O2490      C2498   1.292       .  A
O2490     Eu2522   2.472       .  S
O2491      C2497   1.292       .  A
O2491     Eu2493   2.471       .  S
O2492      C2496   1.285       .  A
O2492     Eu2493   2.431       .  S
Eu2493     O2503   2.357       .  S
Eu2493     O2495   2.359       .  S
Eu2493     O2494   2.342       .  S
Eu2493     O2501   2.355       .  S
O2494     Eu2523   2.358       .  S
O2494     Eu2520   2.346       .  S
O2495     Eu2521   2.341       .  S
O2495     Eu2522   2.345       .  S
C2496      C3019   1.434       .  S
C2497      C2941   1.438       .  S
C2498      C3007   1.442       .  S
C2499      C2864   1.433       .  S
H2500      O2501   0.965       .  S
O2501     Eu2522   2.347       .  S
O2501     Eu2520   2.368       .  S
H2502      O2503   0.966       .  S
O2503     Eu2521   2.358       .  S
O2503     Eu2523   2.358       .  S
O2504      C2527   1.295       .  A
O2504     Eu2520   2.488       .  S
O2505      C2528   1.289       .  A
O2505     Eu2521   2.459       .  S
O2506      C2529   1.294       .  A
O2506     Eu2522   2.482       .  S
O2507      C2530   1.289       .  A
O2507     Eu2523   2.459       .  S
O2508      C2531   1.295       .  A
O2508     Eu2523   2.483       .  S
O2509      C2532   1.290       .  A
O2509     Eu2522   2.461       .  S
O2510      C2533   1.295       .  A
O2510     Eu2524   2.486       .  S
O2511      C2534   1.290       .  A
O2511     Eu2524   2.463       .  S
O2512      C2533   1.285       .  A
O2512     Eu2522   2.432       .  S
O2513      C2534   1.292       .  A
O2513     Eu2523   2.473       .  S
O2514      C2529   1.285       .  A
O2514     Eu2520   2.432       .  S
O2515      C2532   1.293       .  A
O2515     Eu2521   2.475       .  S
O2516      C2531   1.285       .  A
O2516     Eu2521   2.431       .  S
O2517      C2530   1.292       .  A
O2517     Eu2520   2.473       .  S
O2518      C2527   1.285       .  A
O2518     Eu2524   2.429       .  S
O2519      C2528   1.292       .  A
O2519     Eu2524   2.473       .  S
Eu2520     O2538   2.346       .  S
Eu2520     O2526   2.352       .  S
Eu2521     O2525   2.360       .  S
Eu2521     O2536   2.354       .  S
Eu2522     O2536   2.367       .  S
Eu2522     O2526   2.352       .  S
Eu2523     O2525   2.341       .  S
Eu2523     O2538   2.354       .  S
Eu2524     O2525   2.345       .  S
Eu2524     O2536   2.346       .  S
Eu2524     O2538   2.367       .  S
Eu2524     O2526   2.353       .  S
C2527      C2982   1.434       .  S
C2528      C2946   1.441       .  S
C2529      C2910   1.432       .  S
C2530      C2815   1.441       .  S
C2531      C2930   1.433       .  S
C2532      C2812   1.439       .  S
C2533      C2828   1.434       .  S
C2534      C3001   1.440       .  S
H2535      O2536   0.964       .  S
H2537      O2538   0.964       .  S
O2539      C2550   1.295       .  A
O2539     Eu2575   2.485       .  S
O2540      C2551   1.290       .  A
O2540     Eu2574   2.461       .  S
O2541      C2552   1.294       .  A
O2541     Eu2547   2.482       .  S
O2542      C2553   1.290       .  A
O2543      C2553   1.292       .  A
O2543     Eu2577   2.475       .  S
O2544      C2552   1.285   1_545  A
O2545      C2551   1.292       .  A
O2545     Eu2547   2.473   1_554  S
O2546      C2550   1.285       .  A
Eu2547     O2549   2.352       .  S
Eu2547     O2548   2.345   1_556  S
Eu2547     O2555   2.347   1_556  S
O2548     Eu2574   2.358       .  S
C2550      C3004   1.434       .  S
C2551      C2823   1.442       .  S
C2552      C2944   1.432       .  S
C2553      C2984   1.440       .  S
H2554      O2555   0.965       .  S
O2555     Eu2574   2.356       .  S
H2556      O2557   0.965       .  S
O2557     Eu2575   2.346   1_554  S
O2557     Eu2577   2.354       .  S
O2558      C2581   1.295       .  A
O2559      C2582   1.290       .  A
O2560      C2583   1.290       .  A
O2560     Eu2576   2.464   1_554  S
O2561     Eu2577   2.483       .  S
O2562      C2585   1.289       .  A
O2562     Eu2577   2.458       .  S
O2563      C2586   1.295       .  A
O2563     Eu2576   2.486       .  S
O2564      C2587   1.290       .  A
O2564     Eu2578   2.460       .  S
O2566      C2587   1.292       .  A
O2566     Eu2576   2.471   1_554  S
O2567      C2588   1.285       .  A
O2567     Eu2577   2.431       .  S
O2568     Eu2574   2.469   1_545  S
O2570      C2585   1.292       .  A
O2570     Eu2575   2.473   1_554  S
O2571      C2584   1.285       .  A
O2571     Eu2574   2.432       .  S
O2572      C2581   1.285       .  A
O2572     Eu2578   2.430       .  S
O2573      C2582   1.292       .  A
Eu2574     O2592   2.357       .  S
Eu2575     O2579   2.346   1_556  S
Eu2576     O2590   2.347   1_556  S
Eu2576     O2580   2.345   1_556  S
Eu2577     O2579   2.360       .  S
Eu2578     O2590   2.353       .  S
Eu2578     O2580   2.359       .  S
C2581      C2958   1.433       .  S
C2582      C2826   1.439       .  S
C2583      C2911   1.438       .  S
C2584      C2836   1.434       .  S
C2585      C2906   1.441       .  S
C2586      C2810   1.434       .  S
C2587      C2977   1.441       .  S
C2588      C2881   1.433       .  S
H2589      O2590   0.964       .  S
H2591      O2592   0.966       .  S
O2593      C2604   1.295       .  A
O2593     Eu2629   2.484       .  S
O2594      C2605   1.290       .  A
O2594     Eu2628   2.462       .  S
O2595      C2606   1.289       .  A
O2595     Eu2601   2.460       .  S
O2596      C2607   1.295       .  A
O2596     Eu2601   2.484       .  S
O2597      C2607   1.285       .  A
O2597     Eu2631   2.432       .  S
O2598      C2606   1.292       .  A
O2598     Eu2630   2.473       .  S
O2599      C2605   1.293       .  A
O2599     Eu2601   2.475       .  S
O2600      C2604   1.285       .  A
O2600     Eu2601   2.432       .  S
Eu2601     O2611   2.359       .  S
Eu2601     O2603   2.360       .  S
Eu2601     O2602   2.342       .  S
Eu2601     O2609   2.354       .  S
O2602     Eu2631   2.359       .  S
O2602     Eu2628   2.346       .  S
O2603     Eu2629   2.343       .  S
O2603     Eu2630   2.347       .  S
C2604      C2995   1.433       .  S
C2605      C2874   1.440       .  S
C2606      C2972   1.442       .  S
C2607      C2923   1.434       .  S
H2608      O2609   0.964       .  S
O2609     Eu2630   2.344       .  S
O2609     Eu2628   2.367       .  S
H2610      O2611   0.966       .  S
O2611     Eu2629   2.358       .  S
O2611     Eu2631   2.358       .  S
O2612      C2635   1.295       .  A
O2612     Eu2628   2.485       .  S
O2613      C2636   1.289       .  A
O2613     Eu2629   2.458       .  S
O2614      C2637   1.295       .  A
O2614     Eu2630   2.486       .  S
O2615      C2638   1.289       .  A
O2615     Eu2631   2.459       .  S
O2616      C2639   1.294       .  A
O2616     Eu2631   2.481       .  S
O2617      C2640   1.290       .  A
O2617     Eu2630   2.461       .  S
O2618      C2641   1.295       .  A
O2618     Eu2632   2.488       .  S
O2619      C2642   1.290       .  A
O2619     Eu2632   2.464       .  S
O2620      C2641   1.285       .  A
O2620     Eu2630   2.430       .  S
O2621      C2642   1.292       .  A
O2621     Eu2631   2.472       .  S
O2622      C2637   1.285       .  A
O2622     Eu2628   2.431       .  S
O2623      C2640   1.293       .  A
O2623     Eu2629   2.475       .  S
O2624      C2639   1.285       .  A
O2624     Eu2629   2.434       .  S
O2625      C2638   1.292       .  A
O2625     Eu2628   2.473       .  S
O2626      C2635   1.285       .  A
O2626     Eu2632   2.431       .  S
O2627      C2636   1.293       .  A
O2627     Eu2632   2.475       .  S
Eu2628     O2646   2.345       .  S
Eu2628     O2634   2.353       .  S
Eu2629     O2633   2.359       .  S
Eu2629     O2644   2.355       .  S
Eu2630     O2644   2.368       .  S
Eu2630     O2634   2.353       .  S
Eu2631     O2633   2.342       .  S
Eu2631     O2646   2.354       .  S
Eu2632     O2633   2.346       .  S
Eu2632     O2644   2.346       .  S
Eu2632     O2646   2.368       .  S
Eu2632     O2634   2.353       .  S
C2635      C2953   1.433       .  S
C2636      C2869   1.441       .  S
C2637      C2837   1.434       .  S
C2638      C2899   1.441       .  S
C2639      C2850   1.434       .  S
C2640      C2893   1.440       .  S
C2641      C2885   1.434       .  S
C2642      C2966   1.439       .  S
H2643      O2644   0.964       .  S
H2645      O2646   0.964       .  S
O2647      C2658   1.289       .  A
O2647     Eu2683   2.460       .  S
O2648      C2659   1.295       .  A
O2648     Eu2682   2.485       .  S
O2649      C2660   1.290       .  A
O2649     Eu2655   2.462       .  S
O2650      C2661   1.295       .  A
O2650     Eu2655   2.488       .  S
O2651      C2661   1.285       .  A
O2651     Eu2685   2.433       .  S
O2652      C2660   1.292       .  A
O2652     Eu2684   2.474       .  S
O2653      C2659   1.285       .  A
O2653     Eu2655   2.431       .  S
O2654      C2658   1.292       .  A
O2654     Eu2655   2.473       .  S
Eu2655     O2665   2.346       .  S
Eu2655     O2657   2.346       .  S
Eu2655     O2656   2.352       .  S
Eu2655     O2663   2.368       .  S
O2656     Eu2685   2.352       .  S
O2656     Eu2682   2.352       .  S
O2657     Eu2683   2.359       .  S
O2657     Eu2684   2.341       .  S
C2658      C3017   1.442       .  S
C2659      C2918   1.433       .  S
C2660      C2933   1.440       .  S
C2661      C2845   1.436       .  S
H2662      O2663   0.964       .  S
O2663     Eu2684   2.355       .  S
O2663     Eu2682   2.347       .  S
H2664      O2665   0.964       .  S
O2665     Eu2683   2.356       .  S
O2665     Eu2685   2.368       .  S
O2666      C2689   1.290       .  A
O2666     Eu2682   2.461       .  S
O2667      C2690   1.295       .  A
O2667     Eu2683   2.484       .  S
O2668      C2691   1.289       .  A
O2668     Eu2684   2.459       .  S
O2669      C2692   1.295       .  A
O2669     Eu2685   2.487       .  S
O2670      C2693   1.290       .  A
O2670     Eu2685   2.464       .  S
O2671      C2694   1.295       .  A
O2671     Eu2684   2.484       .  S
O2672      C2695   1.295       .  A
O2672     Eu2686   2.485       .  S
O2673      C2696   1.290       .  A
O2673     Eu2686   2.461       .  S
O2674      C2695   1.285       .  A
O2674     Eu2684   2.431       .  S
O2675      C2696   1.292       .  A
O2675     Eu2685   2.473       .  S
O2676      C2691   1.292       .  A
O2676     Eu2682   2.474       .  S
O2677      C2694   1.285       .  A
O2677     Eu2683   2.431       .  S
O2678      C2693   1.292       .  A
O2678     Eu2683   2.472       .  S
O2679      C2692   1.285       .  A
O2679     Eu2682   2.432       .  S
O2680      C2689   1.292       .  A
O2680     Eu2686   2.475       .  S
O2681      C2690   1.285       .  A
O2681     Eu2686   2.431       .  S
Eu2682     O2700   2.368       .  S
Eu2682     O2688   2.345       .  S
Eu2683     O2687   2.342       .  S
Eu2683     O2698   2.358       .  S
Eu2684     O2698   2.358       .  S
Eu2684     O2688   2.360       .  S
Eu2685     O2687   2.346       .  S
Eu2685     O2700   2.348       .  S
Eu2686     O2687   2.360       .  S
Eu2686     O2698   2.358       .  S
Eu2686     O2700   2.355       .  S
Eu2686     O2688   2.342       .  S
C2689      C3013   1.440       .  S
C2690      C2947   1.433       .  S
C2691      C2862   1.442       .  S
C2692      C2990   1.435       .  S
C2693      C2858   1.439       .  S
C2694      C3006   1.434       .  S
C2695      C2814   1.434       .  S
C2696      C2932   1.442       .  S
H2697      O2698   0.966       .  S
H2699      O2700   0.965       .  S
O2701      C2712   1.295       .  A
O2701     Eu2737   2.484       .  S
O2702      C2713   1.290       .  A
O2702     Eu2736   2.460       .  S
O2703      C2714   1.289       .  A
O2703     Eu2709   2.459       .  S
O2704      C2715   1.295       .  A
O2704     Eu2709   2.484       .  S
O2705      C2715   1.285       .  A
O2705     Eu2739   2.433       .  S
O2706      C2714   1.292       .  A
O2706     Eu2738   2.473       .  S
O2707      C2713   1.293       .  A
O2707     Eu2709   2.475       .  S
O2708      C2712   1.285       .  A
O2708     Eu2709   2.431       .  S
Eu2709     O2719   2.358       .  S
Eu2709     O2711   2.360       .  S
Eu2709     O2710   2.342       .  S
Eu2709     O2717   2.354       .  S
O2710     Eu2739   2.359       .  S
O2710     Eu2736   2.347       .  S
O2711     Eu2737   2.343       .  S
O2711     Eu2738   2.346       .  S
C2712      C2979   1.433       .  S
C2713      C2887   1.439       .  S
C2714      C2960   1.441       .  S
C2715      C2822   1.434       .  S
H2716      O2717   0.964       .  S
O2717     Eu2738   2.345       .  S
O2717     Eu2736   2.366       .  S
H2718      O2719   0.966       .  S
O2719     Eu2737   2.358       .  S
O2719     Eu2739   2.357       .  S
O2720      C2743   1.295       .  A
O2720     Eu2736   2.484       .  S
O2721      C2744   1.290       .  A
O2721     Eu2737   2.461       .  S
O2722      C2745   1.295       .  A
O2722     Eu2738   2.486       .  S
O2723      C2746   1.290       .  A
O2723     Eu2739   2.461       .  S
O2724      C2747   1.295       .  A
O2724     Eu2739   2.486       .  S
O2725      C2748   1.290       .  A
O2725     Eu2738   2.462       .  S
O2726      C2749   1.295       .  A
O2726     Eu2740   2.487       .  S
O2727      C2750   1.290       .  A
O2727     Eu2740   2.463       .  S
O2728      C2749   1.285       .  A
O2728     Eu2738   2.430       .  S
O2729      C2750   1.292       .  A
O2729     Eu2739   2.473       .  S
O2730      C2745   1.285       .  A
O2730     Eu2736   2.433       .  S
O2731      C2748   1.292       .  A
O2731     Eu2737   2.475       .  S
O2732      C2747   1.285       .  A
O2732     Eu2737   2.429       .  S
O2733      C2746   1.292       .  A
O2733     Eu2736   2.472       .  S
O2734      C2743   1.285       .  A
O2734     Eu2740   2.433       .  S
O2735      C2744   1.292       .  A
O2735     Eu2740   2.473       .  S
Eu2736     O2754   2.346       .  S
Eu2736     O2742   2.352       .  S
Eu2737     O2741   2.359       .  S
Eu2737     O2752   2.354       .  S
Eu2738     O2752   2.368       .  S
Eu2738     O2742   2.353       .  S
Eu2739     O2741   2.342       .  S
Eu2739     O2754   2.355       .  S
Eu2740     O2741   2.346       .  S
Eu2740     O2752   2.347       .  S
Eu2740     O2754   2.367       .  S
Eu2740     O2742   2.353       .  S
C2743      C2967   1.433       .  S
C2744      C2883   1.442       .  S
C2745      C2896   1.435       .  S
C2746      C2834   1.442       .  S
C2747      C2908   1.433       .  S
C2748      C2840   1.440       .  S
C2749      C2876   1.434       .  S
C2750      C2955   1.439       .  S
H2751      O2752   0.964       .  S
H2753      O2754   0.964       .  S
O2756      C2767   1.290       .  A
O2757     Eu2763   2.482       .  S
O2758      C2769   1.290       .  A
O2758     Eu2763   2.463       .  S
O2759      C2769   1.292       .  A
O2759     Eu2793   2.474       .  S
O2760      C2768   1.285       .  A
O2760     Eu2792   2.433       .  S
O2761      C2767   1.292       .  A
O2761     Eu2763   2.471       .  S
O2762      C2766   1.285       .  A
O2762     Eu2763   2.433       .  S
Eu2763     O2773   2.367       .  S
Eu2763     O2764   2.345       .  S
O2764     Eu2793   2.342       .  S
O2765     Eu2792   2.352       .  S
C2766      C3016   1.434       .  S
C2767      C2922   1.441       .  S
C2768      C2860   1.433       .  S
C2769      C2991   1.440       .  S
H2770      O2771   0.965       .  S
O2771     Eu2792   2.367       .  S
O2771     Eu2790   2.355       .  S
H2772      O2773   0.964       .  S
O2773     Eu2793   2.355       .  S
O2774      C2797   1.295       .  A
O2774     Eu2790   2.485       .  S
O2775      C2798   1.290       .  A
O2775     Eu2791   2.463       .  S
O2776      C2799   1.290       .  A
O2776     Eu2792   2.463       .  S
O2777      C2800   1.295       .  A
O2777     Eu2793   2.485       .  S
O2778      C2801   1.290       .  A
O2779      C2802   1.295       .  A
O2780      C2803   1.289       .  A
O2780     Eu2794   2.460       .  S
O2781      C2804   1.295       .  A
O2781     Eu2794   2.486       .  S
O2782      C2803   1.292       .  A
O2784      C2799   1.293       .  A
O2784     Eu2790   2.476       .  S
O2785      C2802   1.285       .  A
O2785     Eu2791   2.429       .  S
O2786      C2801   1.292       .  A
O2787      C2800   1.285       .  A
O2788     Eu2794   2.432       .  S
O2789      C2798   1.292       .  A
O2789     Eu2794   2.474       .  S
Eu2790     O2808   2.359       .  S
Eu2790     O2796   2.342       .  S
Eu2791     O2795   2.345       .  S
Eu2791     O2806   2.368       .  S
Eu2792     O2796   2.346       .  S
Eu2794     O2795   2.341       .  S
Eu2794     O2806   2.356       .  S
C2797      C2970   1.434       .  S
C2798      C2919   1.440       .  S
C2799      C2848   1.441       .  S
C2800      C2897   1.434       .  S
C2801      C2851   1.441       .  S
C2802      C2936   1.433       .  S
C2803      C2993   1.441       .  S
C2804      C2872   1.434       .  S
H2805      O2806   0.964       .  S
H2807      O2808   0.966       .  S
C2809      C2810   1.205       .  T
C2811      C2812   1.209       .  T
C2813      C2814   1.205       .  T
C2815      C2816   1.210       .  T
C2817      C2818   1.201       .  T
C2818      C2819   1.405       .  S
C2819      C2820   1.201       .  T
C2821      C2822   1.206       .  T
C2823      C2824   1.210       .  T
C2825      C2826   1.209       .  T
C2827      C2828   1.206       .  T
C2830      C2831   1.406       .  S
C2831      C2832   1.202       .  T
C2833      C2834   1.210       .  T
C2835      C2836   1.205       .  T
C2837      C2838   1.206       .  T
C2839      C2840   1.209       .  T
C2841      C2842   1.202       .  T
C2842      C2843   1.407       .  S
C2843      C2844   1.202       .  T
C2845      C2846   1.207       .  T
C2847      C2848   1.210       .  T
C2849      C2850   1.205       .  T
C2851      C2852   1.210       .  T
C2854      C2855   1.407       .  S
C2855      C2856   1.202       .  T
C2857      C2858   1.209       .  T
C2859      C2860   1.205       .  T
C2861      C2862   1.210       .  T
C2863      C2864   1.205       .  T
C2865      C2866   1.202       .  T
C2866      C2867   1.406       .  S
C2867      C2868   1.202       .  T
C2869      C2870   1.210       .  T
C2871      C2872   1.206       .  T
C2873      C2874   1.209       .  T
C2875      C2876   1.205       .  T
C2877      C2878   1.201       .  T
C2878      C2879   1.405       .  S
C2879      C2880   1.202       .  T
C2881      C2882   1.205       .  T
C2883      C2884   1.210       .  T
C2885      C2886   1.206       .  T
C2887      C2888   1.209       .  T
C2889      C2890   1.202       .  T
C2890      C2891   1.406       .  S
C2891      C2892   1.202       .  T
C2895      C2896   1.206       .  T
C2897      C2898   1.206       .  T
C2899      C2900   1.210       .  T
C2901      C2902   1.202       .  T
C2902      C2903   1.406       .  S
C2903      C2904   1.202       .  T
C2905      C2906   1.210       .  T
C2907      C2908   1.205       .  T
C2909      C2910   1.204       .  T
C2911      C2912   1.208       .  T
C2913      C2914   1.202       .  T
C2914      C2915   1.406       .  S
C2917      C2918   1.205       .  T
C2919      C2920   1.209       .  T
C2921      C2922   1.210       .  T
C2923      C2924   1.205       .  T
C2925      C2926   1.202       .  T
C2926      C2927   1.406       .  S
C2927      C2928   1.202       .  T
C2929      C2930   1.205       .  T
C2931      C2932   1.210       .  T
C2933      C2934   1.209       .  T
C2935      C2936   1.205       .  T
C2937      C2938   1.202       .  T
C2938      C2939   1.406       .  S
C2939      C2940   1.202       .  T
C2941      C2942   1.208       .  T
C2943      C2944   1.204       .  T
C2947      C2948   1.205       .  T
C2949      C2950   1.202       .  T
C2950      C2951   1.406       .  S
C2951      C2952   1.202       .  T
C2953      C2954   1.205       .  T
C2955      C2956   1.209       .  T
C2957      C2958   1.205       .  T
C2959      C2960   1.210       .  T
C2961      C2962   1.202       .  T
C2962      C2963   1.406       .  S
C2963      C2964   1.202       .  T
C2967      C2968   1.205       .  T
C2969      C2970   1.206       .  T
C2971      C2972   1.210       .  T
C2973      C2974   1.202       .  T
C2974      C2975   1.407       .  S
C2975      C2976   1.202       .  T
C2977      C2978   1.210       .  T
C2979      C2980   1.205       .  T
C2981      C2982   1.205       .  T
C2983      C2984   1.209       .  T
C2985      C2986   1.201       .  T
C2986      C2987   1.405       .  S
C2987      C2988   1.202       .  T
C2989      C2990   1.206       .  T
C2991      C2992   1.209       .  T
C2993      C2994   1.210       .  T
C2995      C2996   1.205       .  T
C2998      C2999   1.406       .  S
C2999      C3000   1.202       .  T
C3001      C3002   1.209       .  T
C3003      C3004   1.205       .  T
C3005      C3006   1.205       .  T
C3009      C3010   1.202       .  T
C3010      C3011   1.407       .  S
C3011      C3012   1.202       .  T
C3013      C3014   1.209       .  T
C3015      C3016   1.206       .  T
C3017      C3018   1.210       .  T
C3019      C3020   1.205       .  T
C3021      C3022   1.202       .  T
C3022      C3023   1.407       .  S
C3023      C3024   1.202       .  T
