geometry optimzed in LAMMPS
_audit_creation_date              2020-11-30 
_audit_creation_method            'lammps2cif' 
_symmetry_space_group_name_H-M    'P1' 
_symmetry_Int_Tables_number       1 
_symmetry_cell_setting            triclinic 
loop_ 
_symmetry_equiv_pos_as_xyz 
  x,y,z 
_cell_length_a                    27.72102945 
_cell_length_b                    27.834495271274537 
_cell_length_c                    28.071728529914346 
_cell_angle_alpha                 89.55564117776876 
_cell_angle_beta                  89.84617989657764 
_cell_angle_gamma                 89.90536024839768 
loop_ 
_atom_site_label 
_atom_site_type_symbol 
_atom_site_fract_x 
_atom_site_fract_y 
_atom_site_fract_z 
_atom_site_charge 
C1          C  0.03589836  0.70577077  0.00359518     0.79800
N2          N  0.05811587  0.71787795  0.04373854    -0.78500
C3          C  0.10255232  0.73765694  0.04378226     0.82200
N4          N  0.12641326  0.74474936  0.00124225    -0.78500
C5          C  0.10250631  0.73366907  0.95978877     0.82300
N6          N  0.05797097  0.71423077  0.96201414    -0.80200
C7          C  0.31874113  0.62039151  0.99842968     0.79800
N8          N  0.30043771  0.63731111  0.95732165    -0.78500
C9          C  0.26663831  0.67191763  0.95678970     0.82200
N10         N  0.25038615  0.69003053  0.00045253    -0.78500
C11         C  0.26903311  0.67158524  0.04322128     0.82300
N12         N  0.30253122  0.63681908  0.04062463    -0.80200
C13         C  0.74567420  0.08045733  0.00826867     0.79800
N14         N  0.73699472  0.10408623  0.96710322    -0.78500
C15         C  0.73021691  0.15213487  0.96557035     0.82200
N16         N  0.73063477  0.17778414  0.00734730    -0.78500
C17         C  0.74158468  0.15422052  0.04937237     0.82300
N18         N  0.74856694  0.10600788  0.04885977    -0.80200
C19         C  0.51045210  0.26396937  0.00557198     0.79800
N20         N  0.53293975  0.25375897  0.04731672    -0.78500
C21         C  0.57660453  0.23269069  0.04888974     0.82200
N22         N  0.59833560  0.22026000  0.00546775    -0.78500
C23         C  0.57571554  0.23204254  0.96225852     0.82300
N24         N  0.53237250  0.25336709  0.96396471    -0.80200
C25         C  0.69721426  0.94745302  0.11606091     0.79800
N26         N  0.70154596  0.90630622  0.14100074    -0.78500
C27         C  0.70934892  0.90664277  0.18863166     0.82200
N28         N  0.71190670  0.94943672  0.21212954    -0.78500
C29         C  0.70823831  0.99115466  0.18629700     0.82300
N30         N  0.70066880  0.98942376  0.13895390    -0.80200
C31         C  0.60253032  0.95183478  0.42846865     0.79800
N32         N  0.61038160  0.90877000  0.40702092    -0.78500
C33         C  0.62904182  0.90628184  0.36233820     0.82200
N34         N  0.63963859  0.94938359  0.33863733    -0.78500
C35         C  0.62855506  0.99347009  0.35943302     0.82300
N36         N  0.61091484  0.99312606  0.40397591    -0.80200
C37         C  0.09882793  0.95534579  0.89222222     0.79800
N38         N  0.10704146  0.91408815  0.86827956    -0.78500
C39         C  0.12055907  0.91464376  0.82204892     0.82200
N40         N  0.12645100  0.95748589  0.79882739    -0.78500
C41         C  0.11808677  0.99917717  0.82281966     0.82300
N42         N  0.10459914  0.99763335  0.86897393    -0.80200
C43         C  0.24070082  0.95948232  0.58425432     0.79800
N44         N  0.23325908  0.91687456  0.60717538    -0.78500
C45         C  0.21090342  0.91482229  0.65020535     0.82200
N46         N  0.19635057  0.95786253  0.67109292    -0.78500
C47         C  0.20604308  0.00174611  0.64885129     0.82300
N48         N  0.22754947  0.00106164  0.60577138    -0.80200
C49         C  0.74456760  0.62340867  0.01231915     0.79800
N50         N  0.73720329  0.64590707  0.05374631    -0.78500
C51         C  0.72448608  0.69297533  0.05559488     0.82200
N52         N  0.71861763  0.71899101  0.01407676    -0.78500
C53         C  0.72791444  0.69593094  0.97187584     0.82300
N54         N  0.74004607  0.64906144  0.97219871    -0.80200
C55         C  0.57719390  0.58053924  0.01406657     0.79800
N56         N  0.58638441  0.60154740  0.05620313    -0.78500
C57         C  0.60078441  0.64787684  0.05859130     0.82200
N58         N  0.60584338  0.67356930  0.01534357    -0.78500
C59         C  0.59555042  0.65094039  0.97180295     0.82300
N60         N  0.58149298  0.60493162  0.97314707    -0.80200
C61         C  0.02707650  0.14444429  0.00525914     0.79800
N62         N  0.04933833  0.15624669  0.96422662    -0.78500
C63         C  0.09425193  0.17461457  0.96405310     0.82200
N64         N  0.11744883  0.18245329  0.00657101    -0.78500
C65         C  0.09403321  0.17220831  0.04879724     0.82300
N66         N  0.04929167  0.15234224  0.04750832    -0.80200
C67         C  0.31949268  0.29093792  0.99977491     0.79800
N68         N  0.29813293  0.28044923  0.04192088    -0.78500
C69         C  0.25957967  0.25130714  0.04488791     0.82200
N70         N  0.24120180  0.23240086  0.00240122    -0.78500
C71         C  0.26236832  0.24487531  0.95856170     0.82300
N72         N  0.30112168  0.27358450  0.95899290    -0.80200
C73         C  0.60084650  0.93522948  0.82085619     0.79800
N74         N  0.62013926  0.97779811  0.80889102    -0.78500
C75         C  0.66736940  0.98292328  0.79816971     0.82200
N76         N  0.69666408  0.94367078  0.79622777    -0.78500
C77         C  0.67671103  0.90007005  0.80692971     0.82300
N78         N  0.62966923  0.89646127  0.81933260    -0.80200
C79         C  0.56173871  0.94630477  0.63617881     0.79800
N80         N  0.58270541  0.98775906  0.64881406    -0.78500
C81         C  0.62598476  0.98938368  0.66988340     0.82200
N82         N  0.64940100  0.94590995  0.67982541    -0.78500
C83         C  0.62753530  0.90243144  0.66740502     0.82300
N84         N  0.58380315  0.90403321  0.64585846    -0.80200
C85         C  0.21992773  0.96876596  0.14591973     0.79800
N86         N  0.20264448  0.00764829  0.16692861    -0.78500
C87         C  0.16586556  0.00570321  0.19884836     0.82200
N88         N  0.14611656  0.96239621  0.21131324    -0.78500
C89         C  0.16295055  0.92259519  0.18798487     0.82300
N90         N  0.19884698  0.92682617  0.15551074    -0.80200
C91         C  0.29159779  0.96202816  0.37346019     0.79800
N92         N  0.26955808  0.00404172  0.36314961    -0.78500
C93         C  0.22599875  0.00589251  0.34218300     0.82200
N94         N  0.20350942  0.96218431  0.33108653    -0.78500
C95         C  0.22638756  0.91828956  0.34173952     0.82300
N96         N  0.27022702  0.91989579  0.36258101    -0.80200
C97         C  0.92356690  0.06482086  0.83097785     0.79800
N98         N  0.87985639  0.08428876  0.82160062    -0.78500
C99         C  0.87667365  0.12686214  0.79817218     0.82200
N100        N  0.91753094  0.15030728  0.78414396    -0.78500
C101        C  0.96117675  0.12951627  0.79277870     0.82300
N102        N  0.96384157  0.08725463  0.81612884    -0.80200
C103        C  0.91010667  0.36880537  0.69222181     0.79800
N104        N  0.86896562  0.34342523  0.69901213    -0.78500
C105        C  0.86997965  0.29884806  0.71863813     0.82200
N106        N  0.91450468  0.27847636  0.73010559    -0.78500
C107        C  0.95686768  0.30351856  0.72049586     0.82300
N108        N  0.95313306  0.34829755  0.70326773    -0.80200
C109        C  0.93144606  0.79008780  0.87082270     0.79800
N110        N  0.88756453  0.78085979  0.85208570    -0.78500
C111        C  0.88317887  0.76780603  0.80580013     0.82200
N112        N  0.92328983  0.76234416  0.77805206    -0.78500
C113        C  0.96720661  0.77342361  0.79652779     0.82300
N114        N  0.97060749  0.78671265  0.84253824    -0.80200
C115        C  0.93205447  0.55886357  0.66023851     0.79800
N116        N  0.97201473  0.57958016  0.67720548    -0.78500
C117        C  0.97073296  0.61107497  0.71274200     0.82200
N118        N  0.92605287  0.62261587  0.73269939    -0.78500
C119        C  0.88390663  0.60221211  0.71450203     0.82300
N120        N  0.88810213  0.57091054  0.67793223    -0.80200
C121        C  0.91946975  0.78961027  0.14127042     0.79800
N122        N  0.96204872  0.78926948  0.16446368    -0.78500
C123        C  0.96476113  0.78283581  0.21217511     0.82200
N124        N  0.92332576  0.77519200  0.23773891    -0.78500
C125        C  0.87977762  0.77809695  0.21492720     0.82300
N126        N  0.87850832  0.78463921  0.16694647    -0.80200
C127        C  0.94006825  0.55043497  0.34415243     0.79800
N128        N  0.97689865  0.57109382  0.32131276    -0.78500
C129        C  0.97144738  0.60958690  0.29368086     0.82200
N130        N  0.92533805  0.62736461  0.28597912    -0.78500
C131        C  0.88578857  0.60600896  0.30849665     0.82300
N132        N  0.89424521  0.56816230  0.33880041    -0.80200
C133        C  0.93188152  0.06108539  0.20610901     0.79800
N134        N  0.88815221  0.07886907  0.21756285    -0.78500
C135        C  0.88383462  0.12394440  0.23432456     0.82200
N136        N  0.92363891  0.15211764  0.23969494    -0.78500
C137        C  0.96772761  0.13333897  0.22932851     0.82300
N138        N  0.97146104  0.08817757  0.21263278    -0.80200
C139        C  0.92381866  0.31293321  0.37646228     0.79800
N140        N  0.96548745  0.30813042  0.35252695    -0.78500
C141        C  0.96673522  0.29466415  0.30671654     0.82200
N142        N  0.92327932  0.28539414  0.28364930    -0.78500
C143        C  0.87979896  0.29084926  0.30817343     0.82300
N144        N  0.88151852  0.30394853  0.35452033    -0.80200
C145        C  0.28984692  0.46458490  0.31949271     0.79800
N146        N  0.26613407  0.42231451  0.32237089    -0.78500
C147        C  0.21730444  0.42022469  0.31931552     0.82200
N148        N  0.19117172  0.46149794  0.31279019    -0.78500
C149        C  0.21513146  0.50427500  0.31260601     0.82300
N150        N  0.26366833  0.50489239  0.31458535    -0.80200
C151        C  0.10626744  0.46294149  0.08690463     0.79800
N152        N  0.11455224  0.42137270  0.11096242    -0.78500
C153        C  0.13044609  0.42028829  0.15592529     0.82200
N154        N  0.14039182  0.46408728  0.17771975    -0.78500
C155        C  0.12993348  0.50747130  0.15434093     0.82300
N156        N  0.11273657  0.50564259  0.10920774    -0.80200
O157        O  0.10020441  0.71226343  0.12172876    -0.86900
O158        O  0.32281140  0.77382171  0.27101211    -0.87100
O159        O  0.17918368  0.84316941  0.17785521    -0.88700
O160        O  0.24192334  0.72813883  0.10235397    -0.87500
O161        O  0.25161578  0.65005244  0.12704202    -0.87100
O162        O  0.12680963  0.86319927  0.23827218    -0.88500
O163        O  0.30018582  0.78369224  0.19279568    -0.86900
O164        O  0.16377203  0.76100189  0.10078549    -0.86500
Zr165      Zr  0.20990617  0.76243191  0.17549138     2.84300
O166        O  0.25523640  0.71404333  0.22478015    -1.08500
O167        O  0.13024328  0.75786429  0.20714074    -1.09200
C168        C  0.12436427  0.73818018  0.09150481     1.06200
C169        C  0.33279940  0.78418556  0.22749924     1.06100
C170        C  0.15327471  0.87316677  0.20176865     1.09100
C171        C  0.25265217  0.68409349  0.09372866     1.06900
H172        H  0.21670779  0.82263907  0.25156934     0.32500
O173        O  0.20267448  0.79101357  0.25338768    -1.29500
H174        H  0.17271023  0.67215715  0.13818546     0.32100
O175        O  0.17464892  0.68524135  0.16973239    -1.31100
O176        O  0.24659673  0.71631310  0.38686409    -0.86900
O177        O  0.02486896  0.64597530  0.23668334    -0.88400
O178        O  0.16399857  0.86121129  0.31724899    -0.87000
O179        O  0.30623501  0.63710250  0.23969420    -0.87000
O180        O  0.18586082  0.56567173  0.18339854    -0.86700
O181        O  0.03702688  0.79290723  0.25894037    -0.86600
O182        O  0.10903253  0.69758859  0.39903086    -0.86900
O183        O  0.16532967  0.57348758  0.32509948    -0.86400
O184        O  0.10359450  0.77593923  0.37346895    -0.87400
O185        O  0.21650268  0.56600563  0.26069340    -0.86600
O186        O  0.24039583  0.83186504  0.32945624    -0.87000
O187        O  0.02767354  0.73033469  0.20646858    -0.86700
O188        O  0.10752379  0.59099629  0.17596026    -0.86400
O189        O  0.32324156  0.69557769  0.29493543    -0.86800
O190        O  0.18502834  0.66226265  0.39982948    -0.87100
O191        O  0.05260777  0.63184534  0.31251060    -0.88400
Zr192      Zr  0.24886569  0.74324621  0.30399789     2.83100
Zr193      Zr  0.09764024  0.67950801  0.20202208     2.83500
Zr194      Zr  0.12275410  0.78956920  0.28525526     2.84100
Zr195      Zr  0.22359488  0.63753083  0.21473756     2.83400
Zr196      Zr  0.13900413  0.65865064  0.32642623     2.84200
O197        O  0.14584066  0.63122662  0.24814049    -1.09000
O198        O  0.16966075  0.73790415  0.33150700    -1.08500
C199        C  0.22171280  0.68715178  0.41318858     1.06200
C200        C  0.01852401  0.63190278  0.27992181     1.08800
C201        C  0.20864357  0.86744764  0.32896135     1.06300
C202        C  0.33517141  0.66214271  0.26535660     1.06700
C203        C  0.14128741  0.55744941  0.17367928     1.06300
C204        C  0.01236734  0.76754099  0.22885753     1.05800
C205        C  0.10152372  0.74261177  0.40709421     1.06300
C206        C  0.19473173  0.54984093  0.29783395     1.05800
H207        H  0.06059945  0.71296080  0.29258932     0.32500
O208        O  0.09297057  0.71097650  0.28012514    -1.30100
H209        H  0.23928822  0.64291072  0.31479085     0.32500
O210        O  0.21907557  0.66376605  0.29570862    -1.31500
C211        C  0.31080235  0.26886409  0.51269682     0.79800
N212        N  0.28404300  0.26043537  0.55183210    -0.78500
C213        C  0.23843901  0.24420680  0.54823227     0.82200
N214        N  0.21879248  0.23627515  0.50436852    -0.78500
C215        C  0.24659233  0.24403654  0.46462585     0.82300
N216        N  0.29224558  0.26005906  0.46923119    -0.80200
C217        C  0.00314548  0.14023771  0.50205456     0.79800
N218        N  0.02370900  0.14897571  0.54500049    -0.78500
C219        C  0.06629138  0.17255179  0.54831025     0.82200
N220        N  0.08920402  0.18727748  0.50628614    -0.78500
C221        C  0.06927754  0.17640537  0.46214521     0.82300
N222        N  0.02662971  0.15338464  0.46159021    -0.80200
O223        O  0.16085716  0.07182871  0.82842005    -0.86900
O224        O  0.09644123  0.22576254  0.60780835    -0.87100
O225        O  0.03139124  0.12834341  0.74770894    -0.88700
O226        O  0.15079578  0.05970249  0.68200682    -0.87500
O227        O  0.22868492  0.08453751  0.67032615    -0.87100
O228        O  0.02001172  0.18826232  0.80315249    -0.88500
O229        O  0.08679099  0.14692274  0.63026388    -0.86900
O230        O  0.11121628  0.05853301  0.76385547    -0.86500
Zr231      Zr  0.11351882  0.13129513  0.71695098     2.84300
O232        O  0.16096162  0.18148328  0.67100541    -1.08500
O233        O  0.12093073  0.16115320  0.79587941    -1.09200
C234        C  0.13137572  0.04598646  0.80322204     1.06200
C235        C  0.08522019  0.18201810  0.59834148     1.06100
C236        C  0.00644728  0.15130030  0.77918106     1.09100
C237        C  0.19470105  0.05138166  0.66917556     1.06900
H238        H  0.05165113  0.20749541  0.71505785     0.32500
O239        O  0.08422407  0.20927571  0.72678404    -1.29500
H240        H  0.20384295  0.09122171  0.75114477     0.32100
O241        O  0.19212537  0.12376389  0.74999706    -1.31100
O242        O  0.16107963  0.34269695  0.67848819    -0.86900
O243        O  0.23145336  0.18835064  0.90093149    -0.88400
O244        O  0.01720026  0.27237216  0.77229575    -0.87000
O245        O  0.23806765  0.20078651  0.61854210    -0.87000
O246        O  0.31351405  0.14068571  0.73432736    -0.86700
O247        O  0.09004313  0.21307122  0.88938455    -0.86600
O248        O  0.18539608  0.35391496  0.81894127    -0.86900
O249        O  0.30139091  0.27949413  0.75568154    -0.86400
O250        O  0.10699821  0.32876489  0.82623736    -0.87400
O251        O  0.31308626  0.21899268  0.70117390    -0.86600
O252        O  0.04096269  0.28741920  0.69513536    -0.87000
O253        O  0.15213761  0.15946063  0.90298472    -0.86700
O254        O  0.28774223  0.12885774  0.81132653    -0.86400
O255        O  0.17814846  0.25719989  0.60661473    -0.86800
O256        O  0.21702650  0.35384157  0.73806393    -0.87100
O257        O  0.24639354  0.26535415  0.87459776    -0.88400
Zr258      Zr  0.12969807  0.26059068  0.67968992     2.83100
Zr259      Zr  0.19894371  0.15247889  0.82830405     2.83500
Zr260      Zr  0.09076079  0.23994077  0.80548414     2.84100
Zr261      Zr  0.23944115  0.17128671  0.70016163     2.83400
Zr262      Zr  0.21937185  0.28015868  0.78714515     2.84200
O263        O  0.24650479  0.20063468  0.77915010    -1.09000
O264        O  0.13935417  0.28799395  0.75785177    -1.08500
C265        C  0.19267110  0.36793464  0.70117612     1.06200
C266        C  0.24484279  0.23198170  0.90860329     1.08800
C267        C  0.00790380  0.28570046  0.72941070     1.06300
C268        C  0.21494332  0.23206196  0.59313404     1.06700
C269        C  0.32152203  0.12847190  0.77776860     1.06300
C270        C  0.11493077  0.18426211  0.91643161     1.05800
C271        C  0.14074044  0.36238043  0.82811715     1.06300
C272        C  0.32687730  0.25592610  0.72508272     1.05800
H273        H  0.16694519  0.24485419  0.86489309     0.32500
O274        O  0.16895537  0.23217737  0.83313618    -1.30100
H275        H  0.23026344  0.27121732  0.68802918     0.32500
O276        O  0.21015757  0.25128740  0.70817169    -1.31500
C277        C  0.30750278  0.63446613  0.49456241     0.79800
N278        N  0.28442735  0.64940456  0.45538772    -0.78500
C279        C  0.24335080  0.67479881  0.45859438     0.82200
N280        N  0.22480289  0.68672034  0.50225326    -0.78500
C281        C  0.24934779  0.67318943  0.54254902     0.82300
N282        N  0.28973226  0.64600312  0.53810521    -0.80200
C283        C  0.04980771  0.82050997  0.50036558     0.79800
N284        N  0.06333365  0.80056247  0.45879681    -0.78500
C285        C  0.08782342  0.75874099  0.45726238     0.82200
N286        N  0.09946913  0.73604171  0.50047042    -0.78500
C287        C  0.08551178  0.75694170  0.54364379     0.82300
N288        N  0.06114753  0.79888463  0.54196729    -0.80200
C289        C  0.22451553  0.45621019  0.60861766     0.79800
N290        N  0.21932828  0.49839339  0.63131248    -0.78500
C291        C  0.20761822  0.49958446  0.67812579     0.82200
N292        N  0.19998800  0.45750534  0.70268420    -0.78500
C293        C  0.20433870  0.41471532  0.67923686     0.82300
N294        N  0.21705352  0.41457711  0.63259160    -0.80200
C295        C  0.06611421  0.45372641  0.88725979     0.79800
N296        N  0.08644159  0.41297622  0.87160279    -0.78500
C297        C  0.12593925  0.41263184  0.84422848     0.82200
N298        N  0.14669941  0.45684743  0.83175832    -0.78500
C299        C  0.12567134  0.49994472  0.84727472     0.82300
N300        N  0.08497953  0.49699934  0.87445311    -0.80200
O301        O  0.10308347  0.70198508  0.88387203    -0.86900
O302        O  0.32266775  0.77738445  0.73985575    -0.87100
O303        O  0.23717799  0.72868972  0.89851473    -0.88700
O304        O  0.16764236  0.84431792  0.82536778    -0.87500
O305        O  0.11437854  0.85541548  0.76322827    -0.87100
O306        O  0.24663102  0.65034096  0.87480873    -0.88500
O307        O  0.29381074  0.78955276  0.81551728    -0.86900
O308        O  0.15959394  0.75969192  0.90026970    -0.86500
Zr309      Zr  0.20509748  0.76364030  0.82568228     2.84300
O310        O  0.19833366  0.79243784  0.74708903    -1.08500
O311        O  0.17801502  0.68233697  0.83265887    -1.09200
C312        C  0.12413807  0.73209311  0.91196505     1.06200
C313        C  0.32949438  0.78820627  0.78411914     1.06100
C314        C  0.24793983  0.68455950  0.90734755     1.09100
C315        C  0.13587295  0.86895315  0.80142444     1.06900
H316        H  0.28265695  0.71124882  0.79276101     0.32500
O317        O  0.25110863  0.71246118  0.77921434    -1.29500
H318        H  0.10490423  0.77247485  0.81518715     0.32100
O319        O  0.12617679  0.75350989  0.79532170    -1.31100
O320        O  0.25485744  0.71378309  0.61758991    -0.86900
O321        O  0.02768794  0.63994559  0.76985736    -0.88400
O322        O  0.31243483  0.63263004  0.76582523    -0.87000
O323        O  0.15744449  0.85570904  0.68367896    -0.87000
O324        O  0.03436886  0.78152642  0.74369111    -0.86700
O325        O  0.18658362  0.55897497  0.82101781    -0.86600
O326        O  0.17079610  0.57465675  0.67401864    -0.86900
O327        O  0.11073932  0.69559933  0.60155525    -0.86400
O328        O  0.22258912  0.55950038  0.73673461    -0.87400
O329        O  0.09548845  0.77178745  0.62840000    -0.86600
O330        O  0.31900044  0.69566506  0.71246398    -0.87000
O331        O  0.10905327  0.58532533  0.83144205    -0.86700
O332        O  0.02895236  0.72006594  0.79901472    -0.86400
O333        O  0.23620352  0.83254663  0.67289819    -0.86800
O334        O  0.19318829  0.65992936  0.60442435    -0.87100
O335        O  0.05326859  0.63382469  0.69226591    -0.88400
Zr336      Zr  0.24944565  0.74522511  0.70079584     2.83100
Zr337      Zr  0.10078789  0.67250258  0.80247460     2.83500
Zr338      Zr  0.22618003  0.63199905  0.78705467     2.84100
Zr339      Zr  0.11902515  0.78325291  0.71581054     2.83400
Zr340      Zr  0.14174750  0.65751842  0.67518842     2.84200
O341        O  0.09298746  0.70353145  0.72375508    -1.09000
O342        O  0.22014286  0.66512041  0.70823349    -1.08500
C343        C  0.23101638  0.68361832  0.59117321     1.06200
C344        C  0.01977063  0.63058833  0.72592558     1.08800
C345        C  0.33605130  0.66002585  0.73646313     1.06300
C346        C  0.20132201  0.86487711  0.67125623     1.06700
C347        C  0.01208032  0.75644110  0.77606673     1.06300
C348        C  0.14188399  0.55106437  0.83242416     1.05800
C349        C  0.19935107  0.54727863  0.69861670     1.06300
C350        C  0.09795048  0.73971283  0.59406995     1.05800
H351        H  0.13579256  0.59452142  0.75178223     0.32500
O352        O  0.14843327  0.62674771  0.75289678    -1.30100
H353        H  0.17518153  0.74925256  0.63912022     0.32500
O354        O  0.17186070  0.73694227  0.67104763    -1.31500
C355        C  0.75378975  0.44959986  0.33496983     0.79800
N356        N  0.72803818  0.49010406  0.33226801    -0.78500
C357        C  0.68140687  0.49074195  0.31925230     0.82200
N358        N  0.65905525  0.44930564  0.30589559    -0.78500
C359        C  0.68494404  0.40758597  0.30910974     0.82300
N360        N  0.73160490  0.40822163  0.32413162    -0.80200
C361        C  0.80217598  0.44848610  0.15748009     0.79800
N362        N  0.77746189  0.40726987  0.16331040    -0.78500
C363        C  0.73101461  0.40648668  0.17720678     0.82200
N364        N  0.70820085  0.45051481  0.18596194    -0.78500
C365        C  0.73360850  0.49371345  0.17979008     0.82300
N366        N  0.78038885  0.49120219  0.16567702    -0.80200
C367        C  0.43315111  0.64466109  0.18161301     0.79800
N368        N  0.38983125  0.65078075  0.20193572    -0.78500
C369        C  0.38494555  0.65741650  0.24957442     0.82200
N370        N  0.42463069  0.65785664  0.27853471    -0.78500
C371        C  0.46863394  0.65005313  0.25786910     0.82300
N372        N  0.47200004  0.64426309  0.21020992    -0.80200
C373        C  0.43092815  0.86812590  0.19182340     0.79800
N374        N  0.47202639  0.84455506  0.20340490    -0.78500
C375        C  0.47116845  0.80057099  0.22381560     0.82200
N376        N  0.42644923  0.77924667  0.23287115    -0.78500
C377        C  0.38400790  0.80236648  0.21879255     0.82300
N378        N  0.38767221  0.84644226  0.19917344    -0.80200
O379        O  0.67410111  0.83178637  0.19055096    -0.86900
O380        O  0.74512096  0.68736018  0.41483090    -0.87100
O381        O  0.68574946  0.84857354  0.33212758    -0.88700
O382        O  0.81216787  0.78296079  0.26872864    -0.87500
O383        O  0.82032375  0.72152582  0.21460775    -0.87100
O384        O  0.60804051  0.82198942  0.34270349    -0.88500
O385        O  0.75781553  0.76484379  0.38880283    -0.86900
O386        O  0.72558537  0.85091058  0.25185191    -0.86500
Zr387      Zr  0.72877654  0.77828116  0.30127627     2.84300
O388        O  0.75960614  0.69996125  0.29573452    -1.08500
O389        O  0.64869589  0.78023152  0.26980345    -1.09200
C390        C  0.70264709  0.86049839  0.21291227     1.06200
C391        C  0.75809111  0.73087615  0.42235109     1.06100
C392        C  0.64120852  0.85604300  0.34343579     1.09100
C393        C  0.83520963  0.75944058  0.23587549     1.06900
H394        H  0.67630720  0.74257977  0.37910188     0.32500
O395        O  0.67828651  0.72997354  0.34732843    -1.29500
H396        H  0.74135719  0.76662639  0.20149642     0.32100
O397        O  0.72187699  0.74690357  0.22243339    -1.31100
O398        O  0.68271924  0.56884216  0.34439192    -0.86900
O399        O  0.61387161  0.71147156  0.11789949    -0.88400
O400        O  0.59524058  0.70623239  0.40264223    -0.87000
O401        O  0.82485880  0.63438028  0.25538830    -0.87000
O402        O  0.74572173  0.68693818  0.13439768    -0.86700
O403        O  0.52754399  0.76613868  0.27912810    -0.86600
O404        O  0.54533158  0.61971859  0.26256390    -0.86900
O405        O  0.66995364  0.55065158  0.20198463    -0.86400
O406        O  0.52562448  0.68452000  0.30995670    -0.87400
O407        O  0.74665863  0.57975958  0.19197413    -0.86600
O408        O  0.66169871  0.65774549  0.41436401    -0.87000
O409        O  0.55427923  0.77898040  0.20253682    -0.86700
O410        O  0.68631538  0.74159576  0.11561417    -0.86400
O411        O  0.80091034  0.62452523  0.33313894    -0.86800
O412        O  0.63390560  0.54883949  0.28098281    -0.87100
O413        O  0.61392845  0.63354817  0.14453990    -0.88400
Zr414      Zr  0.71193529  0.65172043  0.34409945     2.83100
Zr415      Zr  0.64209933  0.75075652  0.19137459     2.83500
Zr416      Zr  0.59900310  0.73313696  0.31847538     2.84100
Zr417      Zr  0.75311423  0.66764686  0.21825687     2.83400
Zr418      Zr  0.62873701  0.62208630  0.23491105     2.84200
O419        O  0.67500227  0.67256192  0.18882822    -1.09000
O420        O  0.63252895  0.65446825  0.31323713    -1.08500
C421        C  0.66117816  0.53863146  0.31656136     1.06200
C422        C  0.61040509  0.66594317  0.10985737     1.08800
C423        C  0.62246948  0.67829153  0.42826918     1.06300
C424        C  0.83384745  0.62273655  0.29894791     1.06700
C425        C  0.71975412  0.71115564  0.10448158     1.06300
C426        C  0.52027208  0.77925714  0.23558402     1.05800
C427        C  0.51511006  0.64918513  0.28220614     1.06300
C428        C  0.71497148  0.54442722  0.19130731     1.05800
H429        H  0.56535124  0.69849927  0.22592970     0.32500
O430        O  0.59695546  0.70016265  0.23982400    -1.30100
H431        H  0.72181376  0.58943740  0.27005580     0.32500
O432        O  0.70717415  0.62058991  0.26796632    -1.31500
C433        C  0.58740270  0.58066026  0.50381527     0.79800
N434        N  0.59461884  0.59751794  0.54883203    -0.78500
C435        C  0.60640367  0.64495154  0.55580638     0.82200
N436        N  0.61318034  0.67446387  0.51693161    -0.78500
C437        C  0.60391594  0.65741339  0.47234083     0.82300
N438        N  0.59149609  0.61135229  0.46704214    -0.80200
C439        C  0.84554690  0.76946446  0.51435183     0.79800
N440        N  0.82217646  0.76058869  0.47298384    -0.78500
C441        C  0.77827046  0.74054806  0.47176514     0.82200
N442        N  0.75693303  0.72720819  0.51489751    -0.78500
C443        C  0.77953146  0.73752915  0.55799948     0.82300
N444        N  0.82347530  0.75911465  0.55656537    -0.80200
C445        C  0.43495383  0.64590423  0.65444541     0.79800
N446        N  0.47244779  0.64005075  0.68358365    -0.78500
C447        C  0.46809183  0.64054482  0.73127222     0.82200
N448        N  0.42374264  0.64662376  0.75177477    -0.78500
C449        C  0.38477275  0.64910009  0.72197641     0.82300
N450        N  0.39116585  0.65053368  0.67431243    -0.80200
C451        C  0.42412205  0.82095288  0.87126148     0.79800
N452        N  0.46650088  0.80845050  0.85069657    -0.78500
C453        C  0.46894683  0.79073108  0.80602379     0.82200
N454        N  0.42516664  0.78457738  0.78142402    -0.78500
C455        C  0.38103644  0.79762730  0.80278953     0.82300
N456        N  0.38236141  0.81547409  0.84735107    -0.80200
C457        C  0.67271453  0.45116557  0.62200998     0.79800
N458        N  0.66241339  0.49145769  0.64539877    -0.78500
C459        C  0.64452774  0.49053518  0.69025419     0.82200
N460        N  0.63586937  0.44721666  0.71237431    -0.78500
C461        C  0.64417859  0.40598143  0.68697423     0.82300
N462        N  0.66347668  0.40890706  0.64283398    -0.80200
C463        C  0.74077124  0.43316637  0.92200834     0.79800
N464        N  0.72106869  0.39598808  0.89951656    -0.78500
C465        C  0.70096636  0.40008725  0.85690061     0.82200
N466        N  0.69480618  0.44586253  0.83727103    -0.78500
C467        C  0.71262480  0.48627292  0.86083527     0.82300
N468        N  0.73731417  0.47850778  0.90252129    -0.80200
O469        O  0.75217851  0.69306921  0.89364763    -0.86900
O470        O  0.52880990  0.76639703  0.74511647    -0.87100
O471        O  0.68902370  0.82466047  0.83893948    -0.88700
O472        O  0.61309812  0.71369000  0.91208595    -0.87500
O473        O  0.60057049  0.63664448  0.88652227    -0.87100
O474        O  0.72946774  0.84604980  0.77062947    -0.88500
O475        O  0.55494829  0.77339480  0.82231868    -0.86900
O476        O  0.68751252  0.74191312  0.91240642    -0.86500
Zr477      Zr  0.64414274  0.74873239  0.83721210     2.84300
O478        O  0.59690109  0.70144514  0.78857116    -1.08500
O479        O  0.72180652  0.73912474  0.80366093    -1.09200
C480        C  0.72407996  0.71542643  0.92340689     1.06200
C481        C  0.52056874  0.77602239  0.78955299     1.06100
C482        C  0.70280279  0.85528500  0.80685992     1.09100
C483        C  0.60271048  0.66927036  0.92056096     1.06900
H484        H  0.63821590  0.80976452  0.76036613     0.32500
O485        O  0.65106049  0.77766632  0.75869605    -1.29500
H486        H  0.67801625  0.65533332  0.87336979     0.32100
O487        O  0.67470052  0.66867390  0.84185916    -1.31100
O488        O  0.59905416  0.69425329  0.62709854    -0.86900
O489        O  0.82510937  0.62743363  0.77353781    -0.88400
O490        O  0.68990199  0.84489328  0.69233659    -0.87000
O491        O  0.53642350  0.62270802  0.77994508    -0.87000
O492        O  0.65942181  0.54906761  0.83275342    -0.86700
O493        O  0.81341746  0.77432397  0.75749051    -0.86600
O494        O  0.74412711  0.68288066  0.61581826    -0.86900
O495        O  0.68034253  0.56425990  0.69423243    -0.86400
O496        O  0.75832139  0.76007843  0.63990488    -0.87400
O497        O  0.62141370  0.54854142  0.74992076    -0.86600
O498        O  0.61284699  0.81766916  0.68069964    -0.87000
O499        O  0.82086443  0.71382698  0.81388234    -0.86700
O500        O  0.73885475  0.57082907  0.83937927    -0.86400
O501        O  0.53200326  0.68810819  0.73004076    -0.86800
O502        O  0.65947487  0.63767529  0.61966959    -0.87100
O503        O  0.79824172  0.61560379  0.69731579    -0.88400
Zr504      Zr  0.60280340  0.73155113  0.70915326     2.83100
Zr505      Zr  0.75264305  0.66016277  0.81251443     2.83500
Zr506      Zr  0.73057913  0.77270234  0.72596365     2.84100
Zr507      Zr  0.62257412  0.62150635  0.79856200     2.83400
Zr508      Zr  0.71097372  0.64506513  0.68843811     2.84200
O509        O  0.70197792  0.61429740  0.76616030    -1.09000
O510        O  0.68158880  0.72446108  0.67931663    -1.08500
C511        C  0.62218839  0.66043012  0.60404794     1.06200
C512        C  0.83264933  0.61569624  0.72967718     1.08800
C513        C  0.64529258  0.85202982  0.68055134     1.06300
C514        C  0.51362665  0.65228374  0.75247854     1.06700
C515        C  0.70363355  0.53865014  0.84287832     1.06300
C516        C  0.83628107  0.75076846  0.79048933     1.05800
C517        C  0.75841108  0.72632367  0.60731201     1.06300
C518        C  0.64860750  0.53687222  0.71437996     1.05800
H519        H  0.79117803  0.69544352  0.72260768     0.32500
O520        O  0.75862680  0.69385200  0.73471039    -1.30100
H521        H  0.61017997  0.63182163  0.69942083     0.32500
O522        O  0.63080773  0.65162851  0.71863257    -1.31500
C523        C  0.43141270  0.35721697  0.26116984     0.79800
N524        N  0.47085645  0.33072215  0.27040732    -0.78500
C525        C  0.46798849  0.28363143  0.28243539     0.82200
N526        N  0.42363804  0.26220590  0.28557181    -0.78500
C527        C  0.38316590  0.28964917  0.27765303     0.82300
N528        N  0.38776113  0.33640908  0.26484214    -0.80200
C529        C  0.42121468  0.08952429  0.14120751     0.79800
N530        N  0.37958169  0.10224792  0.16237135    -0.78500
C531        C  0.37860237  0.12368128  0.20495531     0.82200
N532        N  0.42247912  0.13335085  0.22723509    -0.78500
C533        C  0.46584556  0.12094735  0.20489224     0.82300
N534        N  0.46391861  0.09940811  0.16187808    -0.80200
O535        O  0.75575527  0.20219480  0.12062643    -0.86900
O536        O  0.52255723  0.13858927  0.26836869    -0.87100
O537        O  0.67202917  0.06636719  0.18422353    -0.88700
O538        O  0.60994890  0.18071939  0.10918432    -0.87500
O539        O  0.59711291  0.25888724  0.13143815    -0.87100
O540        O  0.72337826  0.04865041  0.24623789    -0.88500
O541        O  0.55180283  0.13144212  0.19226333    -0.86900
O542        O  0.69090418  0.15110819  0.11338072    -0.86500
Zr543      Zr  0.64142689  0.14884855  0.18363948     2.84300
O544        O  0.59437851  0.19786734  0.23080526    -1.08500
O545        O  0.72006827  0.15274047  0.21464869    -1.09200
C546        C  0.72851536  0.17252104  0.09688982     1.06200
C547        C  0.51633410  0.13108667  0.22347186     1.06100
C548        C  0.70083601  0.03814447  0.20772783     1.09100
C549        C  0.59698740  0.22399622  0.09919081     1.06900
H550        H  0.63017678  0.08678804  0.25879153     0.32500
O551        O  0.64321584  0.11854870  0.26126176    -1.29500
H552        H  0.67775894  0.23835291  0.14301855     0.32100
O553        O  0.67566370  0.22647263  0.17519829    -1.31100
O554        O  0.59349758  0.19603261  0.39384089    -0.86900
O555        O  0.82442160  0.26647648  0.24530363    -0.88400
O556        O  0.68320149  0.05001254  0.32509852    -0.87000
O557        O  0.54377858  0.27792935  0.24969775    -0.87000
O558        O  0.66507573  0.34873471  0.18941026    -0.86700
O559        O  0.80716834  0.11764249  0.26835924    -0.86600
O560        O  0.73833428  0.21229674  0.40530488    -0.86900
O561        O  0.68284379  0.32935854  0.33147373    -0.86400
O562        O  0.74307722  0.13423443  0.38112845    -0.87400
O563        O  0.64073392  0.35012728  0.26368017    -0.86600
O564        O  0.60612435  0.07758789  0.33858287    -0.87000
O565        O  0.82454236  0.18015802  0.21640276    -0.86700
O566        O  0.74273785  0.32046113  0.18838889    -0.86400
O567        O  0.52293877  0.21929690  0.30445138    -0.86800
O568        O  0.65798680  0.24741705  0.40082822    -0.87100
O569        O  0.79463322  0.27597576  0.32108352    -0.88400
Zr570      Zr  0.59478190  0.16647331  0.31021732     2.83100
Zr571      Zr  0.75397217  0.23057244  0.20565438     2.83500
Zr572      Zr  0.72259647  0.12114359  0.29325450     2.84100
Zr573      Zr  0.62534658  0.27536976  0.21924578     2.83400
Zr574      Zr  0.70780178  0.24738571  0.33081252     2.84200
O575        O  0.70357145  0.27660338  0.25243022    -1.09000
O576        O  0.67413821  0.17027521  0.33932091    -1.08500
C577        C  0.62002075  0.22641569  0.41701834     1.06200
C578        C  0.82990225  0.27771790  0.28961435     1.08800
C579        C  0.63936153  0.04309933  0.33851803     1.06300
C580        C  0.51405094  0.25736938  0.27892243     1.06700
C581        C  0.71097816  0.35571932  0.18524181     1.06300
C582        C  0.83558351  0.14236799  0.24089605     1.05800
C583        C  0.74559894  0.16743827  0.41433998     1.06300
C584        C  0.66529233  0.35981543  0.30162357     1.05800
H585        H  0.78674548  0.19617917  0.29880716     0.32500
O586        O  0.75518201  0.19786399  0.28481708    -1.30100
H587        H  0.60928943  0.26658778  0.31870481     0.32500
O588        O  0.62831743  0.24510557  0.29963351    -1.31500
C589        C  0.42182056  0.34412212  0.70226096     0.79800
N590        N  0.46149171  0.31782695  0.71010519    -0.78500
C591        C  0.45927580  0.27070172  0.71943440     0.82200
N592        N  0.41560598  0.24842807  0.72232770    -0.78500
C593        C  0.37474359  0.27535453  0.71578740     0.82300
N594        N  0.37804373  0.32310030  0.70576423    -0.80200
C595        C  0.40448613  0.03948299  0.82838754     0.79800
N596        N  0.36619381  0.06459820  0.81312210    -0.78500
C597        C  0.37003795  0.10573727  0.78896882     0.82200
N598        N  0.41613502  0.12221775  0.77717147    -0.78500
C599        C  0.45710665  0.09725972  0.79302286     0.82300
N600        N  0.45004906  0.05638555  0.81943933    -0.80200
C601        C  0.59625310  0.31904235  0.50419602     0.79800
N602        N  0.59781940  0.29433193  0.54589284    -0.78500
C603        C  0.60298997  0.24588398  0.54746557     0.82200
N604        N  0.60830267  0.22128607  0.50554761    -0.78500
C605        C  0.60466436  0.24593778  0.46307026     0.82300
N606        N  0.59928295  0.29434300  0.46320930    -0.80200
C607        C  0.79105445  0.08515355  0.50733990     0.79800
N608        N  0.78241714  0.10673835  0.54930982    -0.78500
C609        C  0.76213235  0.15080170  0.55136198     0.82200
N610        N  0.74971625  0.17369782  0.50827784    -0.78500
C611        C  0.75882605  0.15075580  0.46482020     0.82300
N612        N  0.77893823  0.10690460  0.46620197    -0.80200
O613        O  0.73929463  0.20362495  0.89635331    -0.86900
O614        O  0.51926701  0.12631731  0.73902289    -0.87100
O615        O  0.60207460  0.17725875  0.90225416    -0.88700
O616        O  0.65626268  0.06092688  0.81993702    -0.87500
O617        O  0.71553702  0.04526259  0.76462614    -0.87100
O618        O  0.59432966  0.25601498  0.87898075    -0.88500
O619        O  0.54229378  0.11449172  0.81680228    -0.86900
O620        O  0.67968312  0.14613074  0.90026843    -0.86500
Zr621      Zr  0.63074009  0.14340213  0.82826300     2.84300
O622        O  0.64169308  0.11744602  0.75019969    -1.08500
O623        O  0.66104453  0.22198600  0.83682906    -1.09200
C624        C  0.71459815  0.17063836  0.91852843     1.06200
C625        C  0.50951464  0.11369342  0.78251444     1.06100
C626        C  0.59360414  0.22151219  0.91189597     1.09100
C627        C  0.68331227  0.03254976  0.79531603     1.06900
H628        H  0.55190646  0.19436178  0.79261480     0.32500
O629        O  0.58448633  0.19346395  0.78041649    -1.29500
H630        H  0.73146943  0.12920130  0.82291963     0.32100
O631        O  0.71227832  0.14990236  0.80239890    -1.31100
O632        O  0.59132422  0.19386570  0.61704156    -0.86900
O633        O  0.81249416  0.26387496  0.77225330    -0.88400
O634        O  0.53197008  0.27167060  0.75918389    -0.87000
O635        O  0.68694451  0.04830532  0.69108004    -0.87000
O636        O  0.80431831  0.12211992  0.75606428    -0.86700
O637        O  0.64783252  0.34453683  0.82006268    -0.86600
O638        O  0.67199894  0.32809164  0.68385632    -0.86900
O639        O  0.73718661  0.21132484  0.60921505    -0.86400
O640        O  0.61903535  0.34647253  0.74425609    -0.87400
O641        O  0.75071127  0.13467652  0.63631984    -0.86600
O642        O  0.51798648  0.21095457  0.70534796    -0.87000
O643        O  0.72447038  0.31804747  0.83705548    -0.86700
O644        O  0.81414502  0.18200238  0.81168926    -0.86400
O645        O  0.60853485  0.07389533  0.68350886    -0.86800
O646        O  0.65374988  0.24825420  0.61178397    -0.87100
O647        O  0.78934722  0.27437707  0.69433634    -0.88400
Zr648      Zr  0.59140076  0.16263324  0.70150472     2.83100
Zr649      Zr  0.74098459  0.23023971  0.81157498     2.83500
Zr650      Zr  0.61429462  0.27114363  0.78942304     2.84100
Zr651      Zr  0.72256961  0.12167296  0.72283030     2.83400
Zr652      Zr  0.70304916  0.24640382  0.68210364     2.84200
O653        O  0.75037346  0.20012361  0.73265576    -1.09000
O654        O  0.62293019  0.24108523  0.71079630    -1.08500
C655        C  0.61699599  0.22626246  0.59458394     1.06200
C656        C  0.82142173  0.27613893  0.72867269     1.08800
C657        C  0.50533104  0.24815330  0.72957856     1.06300
C658        C  0.64207032  0.04007829  0.68251259     1.06700
C659        C  0.82887404  0.14558694  0.78740006     1.06300
C660        C  0.69083815  0.35196244  0.83485595     1.05800
C661        C  0.64427827  0.35728673  0.70703067     1.06300
C662        C  0.74982743  0.16735890  0.60193139     1.05800
H663        H  0.70749581  0.30712214  0.75783473     0.32500
O664        O  0.69445120  0.27529026  0.75952501    -1.30100
H665        H  0.66997802  0.15634113  0.64311731     0.32500
O666        O  0.67152228  0.16804886  0.67526365    -1.31500
O667        O  0.09145806  0.21440433  0.12238902    -0.86900
O668        O  0.32288851  0.14825020  0.26652840    -0.87100
O669        O  0.23077455  0.19698613  0.10555518    -0.88700
O670        O  0.17669661  0.08524093  0.19500213    -0.87500
O671        O  0.12606185  0.06067594  0.25393159    -0.87100
O672        O  0.24247681  0.27482702  0.12855847    -0.88500
O673        O  0.29283251  0.13729890  0.19107214    -0.86900
O674        O  0.15298791  0.16012214  0.10999708    -0.86500
Zr675      Zr  0.20430305  0.16417031  0.18134330     2.84300
O676        O  0.20060517  0.13507400  0.26009223    -1.08500
O677        O  0.17215792  0.24177092  0.17257316    -1.09200
C678        C  0.11483784  0.18345442  0.09644640     1.06200
C679        C  0.32845249  0.13697398  0.22244425     1.06100
C680        C  0.24183147  0.24071184  0.09572311     1.09100
C681        C  0.15316349  0.05281671  0.21746120     1.06900
H682        H  0.28491277  0.21575994  0.21248384     0.32500
O683        O  0.25315475  0.21291612  0.22639237    -1.29500
H684        H  0.10559219  0.14718514  0.19568830     0.32100
O685        O  0.12560189  0.16803850  0.21440094    -1.31100
O686        O  0.25477989  0.20943904  0.38874343    -0.86900
O687        O  0.02293381  0.27879464  0.24285246    -0.88400
O688        O  0.30556545  0.29226377  0.24547787    -0.87000
O689        O  0.16288084  0.06510449  0.32492657    -0.87000
O690        O  0.03983678  0.13617208  0.26897419    -0.86700
O691        O  0.18488637  0.36200248  0.18756947    -0.86600
O692        O  0.16911594  0.34986357  0.33337044    -0.86900
O693        O  0.10571461  0.23041201  0.40457934    -0.86400
O694        O  0.21916641  0.35807531  0.26808414    -0.87400
O695        O  0.09298069  0.15270946  0.38106746    -0.86600
O696        O  0.32374175  0.23172343  0.29919799    -0.87000
O697        O  0.10703763  0.33626964  0.17632303    -0.86700
O698        O  0.02376910  0.19511453  0.21281855    -0.86400
O699        O  0.24103594  0.09155524  0.32664357    -0.86800
O700        O  0.19019786  0.25941690  0.40402255    -0.87100
O701        O  0.05213614  0.28362152  0.31908063    -0.88400
Zr702      Zr  0.25178743  0.18123159  0.30576801     2.83100
Zr703      Zr  0.09463659  0.24732775  0.20460428     2.83500
Zr704      Zr  0.22171896  0.28914108  0.21798182     2.84100
Zr705      Zr  0.12260525  0.13813615  0.29505325     2.83400
Zr706      Zr  0.14124644  0.26543128  0.33214375     2.84200
O707        O  0.09373020  0.21692910  0.28454606    -1.09000
O708        O  0.21896669  0.25934507  0.29751352    -1.08500
C709        C  0.22883418  0.23657632  0.41622450     1.06200
C710        C  0.01688687  0.28556983  0.28771191     1.08800
C711        C  0.33444127  0.26940919  0.27417384     1.06300
C712        C  0.20840454  0.05710041  0.33026296     1.06700
C713        C  0.01258285  0.15804583  0.23867841     1.06300
C714        C  0.14082119  0.37015621  0.17590972     1.05800
C715        C  0.19884157  0.37349317  0.30615700     1.06300
C716        C  0.09180387  0.18700452  0.41335549     1.05800
H717        H  0.13138444  0.32563338  0.25526129     0.32500
O718        O  0.14386452  0.29352491  0.25317729    -1.30100
H719        H  0.17561998  0.17405958  0.37085582     0.32500
O720        O  0.17402178  0.18647699  0.33876303    -1.31500
C721        C  0.37529413  0.00823753  0.04704168    -0.28600
C722        C  0.40771583  0.01707007  0.01014687     0.05000
C723        C  0.44611861  0.04934462  0.01670370     0.24600
C724        C  0.45195805  0.07186988  0.06037006    -0.13100
C725        C  0.41883166  0.06309055  0.09702501    -0.27100
C726        C  0.38084903  0.03070127  0.09042170     0.35400
C727        C  0.39806618  0.99779825  0.96301319     0.05000
F728        F  0.47581319  0.06149302  0.98001613    -0.20900
H729        H  0.48079752  0.09765935  0.06483133     0.14800
F730        F  0.34925348  0.02078443  0.12615480    -0.24600
H731        H  0.34573986  0.98383510  0.04198739     0.16600
C732        C  0.43542464  0.97754880  0.93632008     0.24600
C733        C  0.43339906  0.97977489  0.88685339    -0.13100
C734        C  0.39457116  0.00320714  0.86551589    -0.27100
C735        C  0.35121046  0.00780725  0.89195156     0.35500
C736        C  0.35387835  0.00761165  0.94121942    -0.28800
F737        F  0.47505361  0.96020010  0.95848969    -0.20900
H738        H  0.46420119  0.96988929  0.86572710     0.14800
F739        F  0.30930996  0.02273518  0.87151132    -0.24600
H740        H  0.32359700  0.02097327  0.96150430     0.16600
C741        C  0.39947465  0.55396656  0.60808005    -0.28600
C742        C  0.44213811  0.53352723  0.62592668     0.05000
C743        C  0.48600775  0.55846965  0.61727142     0.24600
C744        C  0.48365936  0.60488916  0.59766951    -0.13100
C745        C  0.43975938  0.62869330  0.60505321    -0.27100
C746        C  0.39922827  0.60195296  0.59370239     0.35400
C747        C  0.43923632  0.48759992  0.65234549     0.05000
F748        F  0.52885587  0.54296770  0.63484744    -0.20900
H749        H  0.51638781  0.62588739  0.59690668     0.14800
F750        F  0.35621865  0.62436286  0.59254668    -0.24600
H751        H  0.36578242  0.53458078  0.60925914     0.16600
C752        C  0.39713425  0.47472260  0.67810165     0.24600
C753        C  0.39069349  0.42758296  0.69370123    -0.13100
C754        C  0.42797614  0.39427574  0.68812206    -0.27100
C755        C  0.47244461  0.40927130  0.66886291     0.35500
C756        C  0.47717929  0.45468216  0.64950859    -0.28800
F757        F  0.36251779  0.50754489  0.68879120    -0.20900
H758        H  0.35718061  0.41745796  0.71097185     0.14800
F759        F  0.51112743  0.37938242  0.66621641    -0.24600
H760        H  0.51011927  0.46259057  0.63046307     0.16600
C761        C  0.89218325  0.87932853  0.54726137    -0.28600
C762        C  0.87604039  0.89863406  0.50356884     0.05000
C763        C  0.88060477  0.87049571  0.46229080     0.24600
C764        C  0.89479386  0.82284925  0.46703502    -0.13100
C765        C  0.88810981  0.80132348  0.51195457    -0.27100
C766        C  0.89776316  0.82977534  0.55183444     0.35400
C767        C  0.85113902  0.94530620  0.50278822     0.05000
F768        F  0.86586453  0.88628854  0.41883336    -0.20900
H769        H  0.89448363  0.80100531  0.43523800     0.14800
F770        F  0.90128827  0.81002701  0.59601836    -0.24600
H771        H  0.89435477  0.90137832  0.57879897     0.16600
C772        C  0.82117670  0.95867185  0.54110413     0.24600
C773        C  0.80236036  0.00480449  0.54303219    -0.13100
C774        C  0.81143077  0.03726469  0.50585459    -0.27100
C775        C  0.83793904  0.02284296  0.46588712     0.35500
C776        C  0.85696885  0.97701486  0.46422510    -0.28800
F777        F  0.80872611  0.92677458  0.57583851    -0.20900
H778        H  0.77988044  0.01478636  0.57301452     0.14800
F779        F  0.84733944  0.05360695  0.42922632    -0.24600
H780        H  0.87828453  0.96789192  0.43355691     0.16600
C781        C  0.38782797  0.90568302  0.08704879    -0.28600
C782        C  0.43020325  0.89667456  0.06116933     0.05000
C783        C  0.47482217  0.90646699  0.08309901     0.24600
C784        C  0.47628563  0.91358764  0.13223561    -0.13100
C785        C  0.43332625  0.90908386  0.15848848    -0.27100
C786        C  0.39018628  0.91866751  0.13464659     0.35400
C787        C  0.42714453  0.87484921  0.01332745     0.05000
F788        F  0.51686929  0.90455014  0.05843696    -0.20900
H789        H  0.51094562  0.91231545  0.14995679     0.14800
F790        F  0.34867746  0.92517699  0.15963518    -0.24600
H791        H  0.35311496  0.89952617  0.07152884     0.16600
C792        C  0.46117314  0.84058092  0.99823146     0.24600
C793        C  0.46005013  0.82359949  0.95179132    -0.13100
C794        C  0.42335347  0.83797036  0.92054997    -0.27100
C795        C  0.38605688  0.86763533  0.93728514     0.35500
C796        C  0.38849651  0.88630976  0.98299075    -0.28800
F797        F  0.49425623  0.82177114  0.02867446    -0.20900
H798        H  0.48745078  0.79828839  0.94054733     0.14800
F799        F  0.34824915  0.88026948  0.90916205    -0.24600
H800        H  0.36100564  0.91149815  0.99360618     0.16600
C801        C  0.48287635  0.55043443  0.13551699    -0.28600
C802        C  0.43931314  0.52472866  0.14002176     0.05000
C803        C  0.39697270  0.54710365  0.12280020     0.24600
C804        C  0.39601237  0.59724356  0.11883897    -0.13100
C805        C  0.43688930  0.62256562  0.13389435    -0.27100
C806        C  0.48102912  0.59963847  0.12637094     0.35400
C807        C  0.43707293  0.48182433  0.17174495     0.05000
F808        F  0.35574056  0.52185926  0.11633405    -0.20900
H809        H  0.36144803  0.61514883  0.11605913     0.14800
F810        F  0.52186657  0.62538723  0.12958918    -0.24600
H811        H  0.51746339  0.53488330  0.14442971     0.16600
C812        C  0.39706650  0.47375547  0.20216821     0.24600
C813        C  0.39608194  0.43383632  0.23223339    -0.13100
C814        C  0.43612341  0.40342013  0.23592847    -0.27100
C815        C  0.47791857  0.41414621  0.20937284     0.35500
C816        C  0.47769929  0.45201845  0.17680533    -0.28800
F817        F  0.35942420  0.50490079  0.20453932    -0.20900
H818        H  0.36350739  0.42626956  0.25212251     0.14800
F819        F  0.51831844  0.38669574  0.21260839    -0.24600
H820        H  0.50962824  0.45745052  0.15526422     0.16600
C821        C  0.81207516  0.40898003  0.43864502    -0.28600
C822        C  0.80075333  0.45183271  0.46228816     0.05000
C823        C  0.80408008  0.49545354  0.43671855     0.24600
C824        C  0.80669570  0.49416561  0.38737500    -0.13100
C825        C  0.79739537  0.45025079  0.36471538    -0.27100
C826        C  0.80969631  0.40788948  0.38916835     0.35400
C827        C  0.77081195  0.44933916  0.50569608     0.05000
F828        F  0.79497056  0.53843657  0.45743109    -0.20900
H829        H  0.80244679  0.52777690  0.36810947     0.14800
F830        F  0.80686737  0.36484974  0.36736592    -0.24600
H831        H  0.81250658  0.37529918  0.45799917     0.16600
C832        C  0.73324219  0.41516312  0.50903537     0.24600
C833        C  0.70130387  0.41621381  0.54700749    -0.13100
C834        C  0.70428151  0.45263334  0.58070253    -0.27100
C835        C  0.74113944  0.48703950  0.57747590     0.35500
C836        C  0.77441070  0.48479565  0.54067555    -0.28800
F837        F  0.72518454  0.38239733  0.47437432    -0.10500
H838        H  0.67359856  0.38899083  0.54955414     0.14800
F839        F  0.74608361  0.52205983  0.61052168    -0.24600
H840        H  0.80204020  0.51176614  0.53936872     0.16600
C841        C  0.85040169  0.45288002  0.98987627    -0.28600
C842        C  0.87894506  0.42043227  0.96392356     0.05000
C843        C  0.85751276  0.38039595  0.94305787     0.24600
C844        C  0.80800277  0.37895529  0.93929688    -0.13100
C845        C  0.78041986  0.41900020  0.95359073    -0.27100
C846        C  0.80024831  0.45083377  0.98575658     0.35400
C847        C  0.92838510  0.43226433  0.95054622     0.05000
F848        F  0.88402313  0.34735042  0.91903615    -0.20900
H849        H  0.79302703  0.35082764  0.91738897     0.14800
F850        F  0.77093030  0.47969393  0.01124827    -0.24600
H851        H  0.86708656  0.48097021  0.01030917     0.16600
C852        C  0.93757005  0.47394322  0.92367569     0.24600
C853        C  0.98385776  0.48306220  0.90628088    -0.13100
C854        C  0.02043711  0.44905773  0.91302572    -0.27100
C855        C  0.00994420  0.40572424  0.93719874     0.35500
C856        C  0.96440623  0.39772237  0.95583444    -0.28800
F857        F  0.90050649  0.50228264  0.90920473    -0.20900
H858        H  0.99007626  0.51450537  0.88416187     0.14800
F859        F  0.04337304  0.37033632  0.94222854    -0.24600
H860        H  0.95703287  0.36380314  0.97349327     0.16600
C861        C  0.38928177  0.52706415  0.50237371    -0.28600
C862        C  0.42753590  0.54010276  0.47202462     0.05000
C863        C  0.42470508  0.58512450  0.44816239     0.24600
C864        C  0.38564040  0.61578294  0.45597756    -0.13100
C865        C  0.34935967  0.60314724  0.48840717    -0.27100
C866        C  0.35045554  0.55805973  0.51022811     0.35400
C867        C  0.47355600  0.51206768  0.47254177     0.05000
F868        F  0.46082832  0.60146110  0.41966447    -0.20900
H869        H  0.38431536  0.65010998  0.43754809     0.14800
F870        F  0.31440884  0.54471955  0.54023747    -0.24600
H871        H  0.38964954  0.49340322  0.52130788     0.16600
C872        C  0.49296962  0.49748388  0.51663082     0.24600
C873        C  0.54095844  0.50847013  0.52712079    -0.13100
C874        C  0.56808586  0.53227740  0.49254594    -0.27100
C875        C  0.55491162  0.52401461  0.44456823     0.35500
C876        C  0.50620261  0.51622863  0.43447587    -0.28800
F877        F  0.46496750  0.47705123  0.55033294    -0.20900
H878        H  0.55436967  0.50472795  0.56297903     0.14800
F879        F  0.58508393  0.53615335  0.40824403    -0.24600
H880        H  0.49342781  0.52116533  0.39833608     0.16600
C881        C  0.95992338  0.03329079  0.45224014    -0.28600
C882        C  0.95859865  0.00612014  0.49467908     0.05000
C883        C  0.94498612  0.02978901  0.53702414     0.24600
C884        C  0.94934672  0.07963530  0.53929098    -0.13100
C885        C  0.96358413  0.10514092  0.49832962    -0.27100
C886        C  0.95744576  0.08297666  0.45403587     0.35400
C887        C  0.97878063  0.95668378  0.49627593     0.05000
F888        F  0.93319342  0.00479638  0.57712859    -0.20900
H889        H  0.94871702  0.09676883  0.57380051     0.14800
F890        F  0.96086832  0.10845920  0.41272029    -0.24600
H891        H  0.96755269  0.01765988  0.41804987     0.16600
C892        C  0.97822505  0.92595167  0.45645140     0.24600
C893        C  0.00050313  0.88136482  0.45875988    -0.13100
C894        C  0.02454566  0.86654298  0.50004079    -0.27100
C895        C  0.02617070  0.89701993  0.53950263     0.35500
C896        C  0.00399019  0.94167513  0.53730448    -0.28800
F897        F  0.95543455  0.93745998  0.41532551    -0.20900
H898        H  0.99874913  0.85828760  0.42790643     0.14800
F899        F  0.05133158  0.88503312  0.57931543    -0.24600
H900        H  0.00864225  0.96521051  0.56740232     0.16600
C901        C  0.41042199  0.34998235  0.55210996    -0.28600
C902        C  0.44111180  0.34737104  0.51217841     0.05000
C903        C  0.43316258  0.31116127  0.47828104     0.24600
C904        C  0.39143835  0.28408741  0.48007158    -0.13100
C905        C  0.35812543  0.29086490  0.51675010    -0.27100
C906        C  0.36893226  0.32200318  0.55439214     0.35400
C907        C  0.48469320  0.37743804  0.50902438     0.05000
F908        F  0.46626248  0.30047278  0.44426051    -0.20900
H909        H  0.38486768  0.25810824  0.45228732     0.14800
F910        F  0.33780727  0.32837808  0.59124517    -0.24600
H911        H  0.41624491  0.37624521  0.57973253     0.16600
C912        C  0.50683416  0.38756729  0.46478867     0.24600
C913        C  0.55720282  0.38534866  0.46220811    -0.13100
C914        C  0.58185830  0.37043979  0.50350602    -0.27100
C915        C  0.56202066  0.38606282  0.54661877     0.35500
C916        C  0.51219388  0.38346562  0.55023791    -0.28800
F917        F  0.48049108  0.39051598  0.42414009    -0.20900
H918        H  0.57403896  0.38228303  0.42750058     0.14800
F919        F  0.58801362  0.38352295  0.58724834    -0.24600
H920        H  0.49656704  0.37782503  0.58463079     0.16600
C921        C  0.92849913  0.48180538  0.12130087    -0.28600
C922        C  0.93779515  0.44661152  0.08670129     0.05000
C923        C  0.90545096  0.40818803  0.08189167     0.24600
C924        C  0.86234202  0.40826308  0.10697376    -0.13100
C925        C  0.85093376  0.44607575  0.13773823    -0.27100
C926        C  0.88532823  0.48159613  0.14680102     0.35400
C927        C  0.98235299  0.44966401  0.05811301     0.05000
F928        F  0.91371414  0.37174576  0.05124913    -0.20900
H929        H  0.83680966  0.37967246  0.10037419     0.14800
F930        F  0.87694596  0.51646417  0.17939958    -0.24600
H931        H  0.95445793  0.50990577  0.12830112     0.16600
C932        C  0.00014449  0.49462017  0.04255503     0.24600
C933        C  0.04915953  0.49955217  0.03236207    -0.13100
C934        C  0.07900626  0.46009224  0.04192417    -0.27100
C935        C  0.05850106  0.41464762  0.03517854     0.35500
C936        C  0.01124851  0.40876632  0.05108253    -0.28800
F937        F  0.97206533  0.53426038  0.04353326    -0.20900
H938        H  0.06418308  0.53536201  0.02942934     0.14800
F939        F  0.08725191  0.37530583  0.03125410    -0.24600
H940        H  0.99892921  0.37305719  0.06030096     0.16600
C941        C  0.33023691  0.51024384  0.40697896    -0.28600
C942        C  0.32392601  0.46534228  0.42986144     0.05000
C943        C  0.34272031  0.42389792  0.40722522     0.24600
C944        C  0.35658646  0.42746714  0.35943700    -0.13100
C945        C  0.34085040  0.46864755  0.33515862    -0.27100
C946        C  0.34767403  0.51140090  0.36026197     0.35400
C947        C  0.29544781  0.46142084  0.47415187     0.05000
F948        F  0.33985149  0.37958355  0.42744965    -0.20900
H949        H  0.36307617  0.39462155  0.34008919     0.14800
F950        F  0.34881215  0.55406542  0.33645454    -0.24600
H951        H  0.31767867  0.54311510  0.42280314     0.16600
C952        C  0.31306500  0.43348673  0.51165091     0.24600
C953        C  0.28801661  0.42988377  0.55430212    -0.13100
C954        C  0.24531169  0.45557497  0.56083237    -0.27100
C955        C  0.22730268  0.48463214  0.52373632     0.35500
C956        C  0.25189804  0.48679262  0.48009514    -0.28800
F957        F  0.35738111  0.41419840  0.50832450    -0.20900
H958        H  0.30378796  0.40998963  0.58362347     0.14800
F959        F  0.18708500  0.51171761  0.53021814    -0.24600
H960        H  0.23784402  0.50921835  0.45162449     0.16600
C961        C  0.97055923  0.96831953  0.11808203    -0.28600
C962        C  0.93007939  0.93803356  0.11860956     0.05000
C963        C  0.89633312  0.94266883  0.15612069     0.24600
C964        C  0.89842759  0.98188230  0.18616083    -0.13100
C965        C  0.93529463  0.01570752  0.18087305    -0.27100
C966        C  0.97258255  0.00772818  0.14790563     0.35400
C967        C  0.92548128  0.89885304  0.08363876     0.05000
F968        F  0.86231740  0.90871382  0.16511227    -0.20900
H969        H  0.87073546  0.98620281  0.21312006     0.14800
F970        F  0.00925684  0.03951372  0.14201100    -0.24600
H971        H  0.99932600  0.96372651  0.09239407     0.16600
C972        C  0.87988692  0.87811150  0.07513471     0.24600
C973        C  0.87632865  0.82807533  0.07653988    -0.13100
C974        C  0.91792733  0.80272408  0.08996415    -0.27100
C975        C  0.96155213  0.82133289  0.07212035     0.35500
C976        C  0.96647738  0.87110524  0.07290745    -0.28800
F977        F  0.83907445  0.90517660  0.07517484    -0.20900
H978        H  0.84098972  0.81205164  0.08085998     0.14800
F979        F  0.00213254  0.79425576  0.07297427    -0.24600
H980        H  0.00249959  0.88589062  0.07386584     0.16600
C981        C  0.99085033  0.49234435  0.56058360    -0.28600
C982        C  0.95416747  0.49429818  0.52661189     0.05000
C983        C  0.90921350  0.51402444  0.53860441     0.24600
C984        C  0.90028255  0.53024678  0.58422174    -0.13100
C985        C  0.93740875  0.53019993  0.61756522    -0.27100
C986        C  0.98291608  0.51082091  0.60566970     0.35400
C987        C  0.96525805  0.48767068  0.47628923     0.05000
F988        F  0.87684509  0.52456915  0.50424445    -0.20900
H989        H  0.86606122  0.54745342  0.59178405     0.14800
F990        F  0.01941268  0.50873814  0.63786690    -0.24600
H991        H  0.02599704  0.47780838  0.55173855     0.16600
C992        C  0.00131416  0.51667762  0.45638575     0.24600
C993        C  0.99484586  0.53423973  0.41078827    -0.13100
C994        C  0.95439050  0.52017912  0.38411799    -0.27100
C995        C  0.92736492  0.48108603  0.39912401     0.35500
C996        C  0.93087180  0.46630788  0.44634863    -0.28800
F997        F  0.03717218  0.53551205  0.48328191    -0.20900
H998        H  0.01877848  0.56251514  0.39855270     0.14800
F999        F  0.89798286  0.45842786  0.36837469    -0.24600
H1000       H  0.90400861  0.44213229  0.46070793     0.16600
C1001       C  0.87510900  0.40227340  0.58235452    -0.28600
C1002       C  0.92022894  0.38588624  0.56555992     0.05000
C1003       C  0.96139327  0.39425665  0.59352935     0.24600
C1004       C  0.95593103  0.41500723  0.63794629    -0.13100
C1005       C  0.91078891  0.41063950  0.65968168    -0.27100
C1006       C  0.87062022  0.41646453  0.62982531     0.35400
C1007       C  0.92419753  0.36122097  0.51957311     0.05000
F1008       F  0.00612093  0.37969200  0.58018688    -0.20900
H1009       H  0.98797783  0.41877951  0.65966521     0.14800
F1010       F  0.82645304  0.42663587  0.64816050    -0.24600
H1011       H  0.84338066  0.40119398  0.56006158     0.16600
C1012       C  0.88803752  0.32950167  0.50426897     0.24600
C1013       C  0.88858974  0.31265346  0.45770711    -0.13100
C1014       C  0.92531627  0.32691948  0.42635569    -0.27100
C1015       C  0.96379543  0.35477014  0.44308395     0.35500
C1016       C  0.96345335  0.37100624  0.48949310    -0.28800
F1017       F  0.85189215  0.31535057  0.53391436    -0.20900
H1018       H  0.85974991  0.28943055  0.44587464     0.14800
F1019       F  0.99984984  0.36986132  0.41374578    -0.24600
H1020       H  0.99198830  0.39508019  0.49991153     0.16600
C1021       C  0.89752905  0.94698424  0.88986280    -0.28600
C1022       C  0.93360750  0.94539054  0.92536654     0.05000
C1023       C  0.96871035  0.98162565  0.92592273     0.24600
C1024       C  0.96565828  0.02005519  0.89424375    -0.13100
C1025       C  0.92809199  0.02242074  0.86097066    -0.27100
C1026       C  0.89470138  0.98514453  0.85802050     0.35400
C1027       C  0.93847265  0.90152455  0.95503351     0.05000
F1028       F  0.00516789  0.98070898  0.95788745    -0.20900
H1029       H  0.99197697  0.04867915  0.89665964     0.14800
F1030       F  0.85885005  0.98603125  0.82513084    -0.24600
H1031       H  0.87166775  0.91823680  0.88583314     0.16600
C1032       C  0.89651477  0.87402932  0.96205777     0.24600
C1033       C  0.89484425  0.82864673  0.94141953    -0.13100
C1034       C  0.93637107  0.81115808  0.91858890    -0.27100
C1035       C  0.98130924  0.83055083  0.93174662     0.35500
C1036       C  0.98226441  0.87661884  0.95051920    -0.28800
F1037       F  0.85436848  0.89614229  0.97342445    -0.20900
H1038       H  0.85995774  0.81233977  0.93545212     0.14800
F1039       F  0.02343296  0.81062608  0.91691726    -0.24600
H1040       H  0.01638562  0.89531118  0.95027791     0.16600
C1041       C  0.45524223  0.99420477  0.56909843    -0.28600
C1042       C  0.42291869  0.95554826  0.57072077     0.05000
C1043       C  0.43699035  0.91313716  0.59521116     0.24600
C1044       C  0.48285675  0.90947408  0.61528110    -0.13100
C1045       C  0.51463978  0.94842364  0.61293151    -0.27100
C1046       C  0.50022101  0.99098213  0.58991032     0.35400
C1047       C  0.37424182  0.96050316  0.54911394     0.05000
F1048       F  0.40604887  0.87596166  0.60195765    -0.20900
H1049       H  0.49283973  0.87679785  0.63404246     0.14800
F1050       F  0.53007850  0.02947000  0.58593864    -0.24600
H1051       H  0.44740976  0.02676119  0.54963492     0.16600
C1052       C  0.34931572  0.00497246  0.54868100     0.24600
C1053       C  0.30005522  0.00575033  0.54038852    -0.13100
C1054       C  0.27489246  0.96234678  0.54384516    -0.27100
C1055       C  0.29928362  0.92054203  0.52981567     0.35500
C1056       C  0.34957711  0.91974076  0.53235902    -0.28800
F1057       F  0.36992339  0.04686531  0.56206750    -0.20900
H1058       H  0.28139462  0.03966241  0.54491342     0.14800
F1059       F  0.27489676  0.87914220  0.52194029    -0.24600
H1060       H  0.36835440  0.88630068  0.52588689     0.16600
C1061       C  0.16110066  0.00232353  0.98792897    -0.28600
C1062       C  0.19197055  0.96179076  0.99227947     0.05000
C1063       C  0.17088125  0.91610557  0.98379661     0.24600
C1064       C  0.12552054  0.91313020  0.96312529    -0.13100
C1065       C  0.10467776  0.95483350  0.94428994    -0.27100
C1066       C  0.11667912  0.99851702  0.96560685     0.35400
C1067       C  0.24257923  0.96786176  0.01037087     0.05000
F1068       F  0.19376903  0.87397679  0.99218444    -0.20900
H1069       H  0.11294352  0.87809331  0.95205118     0.14800
F1070       F  0.09161444  0.03929880  0.95544033    -0.24600
H1071       H  0.17147736  0.03783330  0.99913755     0.16600
C1072       C  0.26415598  0.92865509  0.03385680     0.24600
C1073       C  0.26630951  0.93012245  0.08318618    -0.13100
C1074       C  0.25317912  0.97281217  0.10590479    -0.27100
C1075       C  0.25504960  0.01597109  0.07943017     0.35500
C1076       C  0.25351329  0.01296719  0.02997169    -0.28800
F1077       F  0.27619389  0.88768036  0.01090907    -0.20900
H1078       H  0.27123430  0.89697557  0.10310022     0.14800
F1079       F  0.25003188  0.05952110  0.10037672    -0.24600
H1080       H  0.24902563  0.04572313  0.00942357     0.16600
C1081       C  0.50434686  0.00458465  0.47061948    -0.28600
C1082       C  0.47600601  0.96295516  0.46589554     0.05000
C1083       C  0.49642450  0.91841055  0.48003132     0.24600
C1084       C  0.54633171  0.91458288  0.48429438    -0.13100
C1085       C  0.57422452  0.95491019  0.47294349    -0.27100
C1086       C  0.55310665  0.00001131  0.48095941     0.35400
C1087       C  0.42887678  0.96460939  0.44135187     0.05000
F1088       F  0.46932435  0.87798911  0.48413075    -0.20900
H1089       H  0.56245456  0.87912421  0.48548351     0.14800
F1090       F  0.58067536  0.04027400  0.48223573    -0.24600
H1091       H  0.49082078  0.04011933  0.46284722     0.16600
C1092       C  0.39794340  0.00483708  0.44336179     0.24600
C1093       C  0.35351491  0.00360525  0.42077332    -0.13100
C1094       C  0.33911969  0.96277559  0.39564563    -0.27100
C1095       C  0.37082996  0.92385964  0.39116971     0.35500
C1096       C  0.41559117  0.92544920  0.41284563    -0.28800
F1097       F  0.40897714  0.04482685  0.46827136    -0.20900
H1098       H  0.32983645  0.03441823  0.42402170     0.14800
F1099       F  0.35930488  0.88469020  0.36504033    -0.24600
H1100       H  0.44003123  0.89579706  0.40666365     0.16600
C1101       C  0.64943184  0.90819299  0.99761383    -0.28600
C1102       C  0.60842479  0.93800167  0.99399556     0.05000
C1103       C  0.59961312  0.97256440  0.02896666     0.24600
C1104       C  0.63113557  0.97727580  0.06671438    -0.13100
C1105       C  0.67126213  0.94681200  0.07112331    -0.27100
C1106       C  0.68036387  0.91197668  0.03651673     0.35400
C1107       C  0.57847350  0.93668216  0.95100363     0.05000
F1108       F  0.55970950  0.00085110  0.02751452    -0.20900
H1109       H  0.62256739  0.00332066  0.09396786     0.14800
F1110       F  0.71884147  0.88193027  0.04040557    -0.24600
H1111       H  0.65777892  0.88238680  0.97009631     0.16600
C1112       C  0.56609572  0.89287782  0.92963544     0.24600
C1113       C  0.55415663  0.89249087  0.88136098    -0.13100
C1114       C  0.56004956  0.93507918  0.85475393    -0.27100
C1115       C  0.55441719  0.97854633  0.87937001     0.35500
C1116       C  0.56836444  0.97982717  0.92675222    -0.28800
F1117       F  0.57134350  0.85062043  0.95352272    -0.20900
H1118       H  0.55307803  0.85824333  0.86350604     0.14800
F1119       F  0.54959464  0.02069654  0.85525119    -0.24600
H1120       H  0.57535170  0.01441609  0.94264774     0.16600
C1121       C  0.48698462  0.48360680  0.02282992    -0.28600
C1122       C  0.51281904  0.44510739  0.00419216     0.05000
C1123       C  0.56064131  0.45087720  0.98871007     0.24600
C1124       C  0.58278161  0.49530417  0.99356292    -0.13100
C1125       C  0.55634227  0.53365900  0.01217448    -0.27100
C1126       C  0.50763396  0.52860576  0.02347982     0.35400
C1127       C  0.49084550  0.39823802  0.00421183     0.05000
F1128       F  0.58606514  0.41334516  0.97079510    -0.20900
H1129       H  0.61998740  0.50000459  0.98252956     0.14800
F1130       F  0.47968704  0.56753936  0.03237068    -0.24600
H1131       H  0.45065853  0.47895173  0.03597246     0.16600
C1132       C  0.48268700  0.37473066  0.04765012     0.24600
C1133       C  0.46977840  0.32674606  0.04782873    -0.13100
C1134       C  0.47333099  0.30132498  0.00506779    -0.27100
C1135       C  0.46861199  0.32705696  0.96188365     0.35500
C1136       C  0.48059655  0.37550384  0.96123043    -0.28800
F1137       F  0.49180164  0.39673945  0.08948225    -0.20900
H1138       H  0.46858695  0.30793644  0.08176197     0.14800
F1139       F  0.46317394  0.30379730  0.91986105    -0.24600
H1140       H  0.48428933  0.39446995  0.92756797     0.16600
C1141       C  0.90371398  0.10108857  0.96997581    -0.28600
C1142       C  0.90345422  0.05571650  0.99215937     0.05000
C1143       C  0.94408175  0.03983473  0.01650478     0.24600
C1144       C  0.98339222  0.06994185  0.02279629    -0.13100
C1145       C  0.98312045  0.11600912  0.00264122    -0.27100
C1146       C  0.94393574  0.13087345  0.97433045     0.35400
C1147       C  0.85864303  0.02816487  0.99623933     0.05000
F1148       F  0.94617893  0.99361071  0.03077087    -0.20900
H1149       H  0.01487407  0.05658484  0.04150602     0.14800
F1150       F  0.94413765  0.17433548  0.95201727    -0.24600
H1151       H  0.87241967  0.11386922  0.95058260     0.16600
C1152       C  0.83910883  0.01940143  0.04196297     0.24600
C1153       C  0.78917728  0.01598162  0.04682335    -0.13100
C1154       C  0.76149489  0.02956159  0.00724013    -0.27100
C1155       C  0.77975605  0.01554047  0.96280448     0.35500
C1156       C  0.82923797  0.02144330  0.95625136    -0.28800
F1157       F  0.86612616  0.02478673  0.08179859    -0.20900
H1158       H  0.77419057  0.01887386  0.08231432     0.14800
F1159       F  0.75064273  0.01533179  0.92400183    -0.24600
H1160       H  0.84286543  0.02764045  0.92082160     0.16600
C1161       C  0.39107476  0.51203171  0.96762516    -0.28600
C1162       C  0.36236088  0.47738196  0.99037457     0.05000
C1163       C  0.31976300  0.49026682  0.01394644     0.24600
C1164       C  0.30755938  0.53770649  0.01744880    -0.13100
C1165       C  0.33758323  0.57273636  0.99770628    -0.27100
C1166       C  0.37901983  0.56034801  0.97196250     0.35400
C1167       C  0.37514268  0.42723652  0.99059786     0.05000
F1168       F  0.28977523  0.45680450  0.03335341    -0.20900
H1169       H  0.27394629  0.54712497  0.03495721     0.14800
F1170       F  0.40757133  0.59460255  0.95197424    -0.24600
H1171       H  0.42308668  0.50170247  0.94799317     0.16600
C1172       C  0.37039172  0.40109735  0.94870456     0.24600
C1173       C  0.36067655  0.35244416  0.95178963    -0.13100
C1174       C  0.35310875  0.33086392  0.99671875    -0.27100
C1175       C  0.36534094  0.35579695  0.03824219     0.35500
C1176       C  0.37677535  0.40394688  0.03492548    -0.28800
F1177       F  0.36801927  0.42353715  0.90567105    -0.20900
H1178       H  0.35293262  0.33356716  0.91910495     0.14800
F1179       F  0.36163477  0.33532135  0.08219874    -0.24600
H1180       H  0.38110251  0.42435294  0.06738937     0.16600
C1181       C  0.84630173  0.57526011  0.96565575    -0.28600
C1182       C  0.87219949  0.58041490  0.00829460     0.05000
C1183       C  0.84856399  0.56868467  0.05144864     0.24600
C1184       C  0.79841482  0.56729154  0.05262254    -0.13100
C1185       C  0.77331526  0.57901149  0.01089130    -0.27100
C1186       C  0.79663380  0.56983271  0.96743402     0.35400
C1187       C  0.91690377  0.60940323  0.00854893     0.05000
F1188       F  0.87276031  0.56699665  0.09317436    -0.20900
H1189       H  0.78039911  0.56800379  0.08690272     0.14800
F1190       F  0.77175796  0.57143963  0.92612425    -0.24600
H1191       H  0.86209874  0.58246032  0.93118157     0.16600
C1192       C  0.94888452  0.61007607  0.96950536     0.24600
C1193       C  0.98623794  0.64286402  0.96767579    -0.13100
C1194       C  0.99420082  0.67415408  0.00557506    -0.27100
C1195       C  0.96495710  0.67130845  0.04628248     0.35500
C1196       C  0.92542505  0.64097513  0.04664323    -0.28800
F1197       F  0.94497705  0.57916610  0.93298472    -0.20900
H1198       H  0.00987638  0.64261218  0.93687363     0.14800
F1199       F  0.97410409  0.69778619  0.08563684    -0.24600
H1200       H  0.90107133  0.64360755  0.07661531     0.16600
loop_ 
_geom_bond_atom_site_label_1 
_geom_bond_atom_site_label_2 
_geom_bond_distance 
_geom_bond_site_symmetry_2 
_ccdc_geom_bond_type 
C1            N2   1.332       .  A
C1            N6   1.336   1_554  A
C1         C1194   1.455   1_455  S
N2            C3   1.350       .  A
C3            N4   1.377       .  A
C3          C168   1.471       .  S
N4            C5   1.378   1_554  A
C5            N6   1.350       .  A
C5          C312   1.470       .  S
C7            N8   1.343       .  A
C7           N12   1.349   1_556  A
C7         C1165   1.425       .  S
N8            C9   1.343       .  A
C9           N10   1.402   1_556  A
C9          C314   1.521       .  S
N10          C11   1.402       .  A
C11          N12   1.342       .  A
C11         C171   1.530       .  S
C13          N14   1.347   1_554  A
C13          N18   1.350       .  A
C13        C1154   1.483       .  S
N14          C15   1.351       .  A
C15          N16   1.378   1_556  A
C15         C624   1.479       .  S
N16          C17   1.380       .  A
C17          N18   1.356       .  A
C17         C546   1.476       .  S
C19          N20   1.357       .  A
C19          N24   1.350   1_554  A
C19        C1134   1.462       .  S
N20          C21   1.345       .  A
C21          N22   1.404       .  A
C21         C549   1.540       .  S
N22          C23   1.403   1_554  A
C23          N24   1.340       .  A
C23         C626   1.527       .  S
C25          N26   1.343       .  A
C25          N30   1.341       .  A
C25        C1105   1.454       .  S
N26          C27   1.355       .  A
C27          N28   1.368       .  A
C27         C390   1.461       .  S
N28          C29   1.368       .  A
C29          N30   1.347       .  A
C29         C548   1.458   1_565  S
C31          N32   1.362       .  A
C31          N36   1.355       .  A
C31        C1085   1.476       .  S
N32          C33   1.358       .  A
C33          N34   1.399       .  A
C33         C392   1.536       .  S
N34          C35   1.396       .  A
C35          N36   1.341       .  A
C35         C579   1.527   1_565  S
C37          N38   1.354       .  A
C37          N42   1.351       .  A
C37        C1065   1.471       .  S
N38          C39   1.350       .  A
C39          N40   1.364       .  A
C39         C315   1.463       .  S
N40          C41   1.365       .  A
C41          N42   1.348       .  A
C41         C234   1.458   1_565  S
C43          N44   1.361       .  A
C43          N48   1.358   1_565  A
C43        C1054   1.478       .  S
N44          C45   1.357       .  A
C45          N46   1.396       .  A
C45         C346   1.530       .  S
N46          C47   1.394   1_565  A
C47          N48   1.347       .  A
C47         C237   1.531       .  S
C49          N50   1.340       .  A
C49          N54   1.335   1_554  A
C49        C1185   1.470       .  S
N50          C51   1.358       .  A
C51          N52   1.377       .  A
C51         C425   1.472       .  S
N52          C53   1.375   1_554  A
C53          N54   1.347       .  A
C53         C480   1.465       .  S
C55          N56   1.349       .  A
C55          N60   1.335   1_554  A
C55        C1125   1.429       .  S
N56          C57   1.353       .  A
C57          N58   1.411       .  A
C57         C422   1.552       .  S
N58          C59   1.409   1_554  A
C59          N60   1.339       .  A
C59         C483   1.535       .  S
C61          N62   1.344   1_554  A
C61          N66   1.357       .  A
C61        C1145   1.456   1_455  S
N62          C63   1.347       .  A
C63          N64   1.376   1_556  A
C63         C270   1.476       .  S
N64          C65   1.378       .  A
C65          N66   1.359       .  A
C65         C678   1.494       .  S
C67          N68   1.352   1_556  A
C67          N72   1.348       .  A
C67        C1174   1.453       .  S
N68          C69   1.345       .  A
C69          N70   1.405       .  A
C69         C680   1.535       .  S
N70          C71   1.403   1_554  A
C71          N72   1.340       .  A
C71         C266   1.531       .  S
C73          N74   1.341       .  A
C73          N78   1.343       .  A
C73        C1114   1.476       .  S
N74          C75   1.350       .  A
C75          N76   1.362       .  A
C75         C627   1.453   1_565  S
N76          C77   1.366       .  A
C77          N78   1.353       .  A
C77         C482   1.440       .  S
C79          N80   1.343       .  A
C79          N84   1.351       .  A
C79        C1045   1.462       .  S
N80          C81   1.340       .  A
C81          N82   1.399       .  A
C81         C658   1.525   1_565  S
N82          C83   1.401       .  A
C83          N84   1.357       .  A
C83         C513   1.529       .  S
C85          N86   1.325   1_565  A
C85          N90   1.332       .  A
C85        C1074   1.455       .  S
N86          C87   1.356       .  A
C87          N88   1.367   1_545  A
C87         C681   1.458       .  S
N88          C89   1.372       .  A
C89          N90   1.352       .  A
C89         C170   1.452       .  S
C91          N92   1.348   1_565  A
C91          N96   1.352       .  A
C91        C1094   1.459       .  S
N92          C93   1.345       .  A
C93          N94   1.405   1_545  A
C93         C712   1.540       .  S
N94          C95   1.406       .  A
C95          N96   1.351       .  A
C95         C201   1.544       .  S
C97          N98   1.352       .  A
C97         N102   1.344       .  A
C97        C1025   1.450       .  S
N98          C99   1.354       .  A
C99         N100   1.364       .  A
C99         C659   1.455       .  S
N100        C101   1.362       .  A
C101        N102   1.344       .  A
C101        C236   1.444   1_655  S
C103        N104   1.355       .  A
C103        N108   1.357       .  A
C103       C1005   1.474       .  S
N104        C105   1.354       .  A
C105        N106   1.395       .  A
C105        C656   1.513       .  S
N106        C107   1.391       .  A
C107        N108   1.337       .  A
C107        C267   1.519   1_655  S
C109        N110   1.352       .  A
C109        N114   1.347       .  A
C109       C1034   1.474       .  S
N110        C111   1.358       .  A
C111        N112   1.365       .  A
C111        C516   1.452       .  S
N112        C113   1.361       .  A
C113        N114   1.350       .  A
C113        C347   1.449   1_655  S
C115        N116   1.340       .  A
C115        N120   1.357       .  A
C115        C985   1.452       .  S
N116        C117   1.333       .  A
C117        N118   1.396       .  A
C117        C344   1.513   1_655  S
N118        C119   1.399       .  A
C119        N120   1.356       .  A
C119        C512   1.529       .  S
C121        N122   1.350       .  A
C121        N126   1.350       .  A
C121        C974   1.484       .  S
N122        C123   1.352       .  A
C123        N124   1.369       .  A
C123        C204   1.463   1_655  S
N124        C125   1.370       .  A
C125        N126   1.358       .  A
C125        C393   1.461       .  S
C127        N128   1.333       .  A
C127        N132   1.370       .  A
C127        C994   1.453       .  S
N128        C129   1.327       .  A
C129        N130   1.387       .  A
C129        C200   1.495   1_655  S
N130        C131   1.396       .  A
C131        N132   1.369       .  A
C131        C424   1.536       .  S
C133        N134   1.348       .  A
C133        N138   1.346       .  A
C133        C965   1.456       .  S
N134        C135   1.348       .  A
C135        N136   1.364       .  A
C135        C582   1.444       .  S
N136        C137   1.360       .  A
C137        N138   1.349       .  A
C137        C713   1.448   1_655  S
C139        N140   1.342       .  A
C139        N144   1.351       .  A
C139       C1014   1.457       .  S
N140        C141   1.343       .  A
C141        N142   1.395       .  A
C141        C710   1.509   1_655  S
N142        C143   1.395       .  A
C143        N144   1.355       .  A
C143        C578   1.525       .  S
C145        N146   1.350       .  A
C145        N150   1.342       .  A
C145        C945   1.487       .  S
N146        C147   1.358       .  A
C147        N148   1.369       .  A
C147        C715   1.449       .  S
N148        C149   1.364       .  A
C149        N150   1.347       .  A
C149        C206   1.446       .  S
C151        N152   1.355       .  A
C151        N156   1.360       .  A
C151        C934   1.476       .  S
N152        C153   1.338       .  A
C153        N154   1.396       .  A
C153        C714   1.527       .  S
N154        C155   1.400       .  A
C155        N156   1.356       .  A
C155        C203   1.531       .  S
O157       Zr193   2.426       .  S
O157        C168   1.295       .  A
O158       Zr192   2.401       .  S
O158        C169   1.283       .  A
O159       Zr165   2.403       .  S
O159        C170   1.291       .  A
O160       Zr165   2.436       .  S
O160        C171   1.286       .  A
O161       Zr195   2.600       .  S
O161        C171   1.326       .  A
O162       Zr194   2.431       .  S
O162        C170   1.287       .  A
O163       Zr165   2.620       .  S
O163        C169   1.331       .  A
O164       Zr165   2.460       .  S
O164        C168   1.293       .  A
Zr165       O166   2.298       .  S
Zr165       O167   2.381       .  S
Zr165       O175   2.369       .  S
Zr165       O173   2.341       .  S
O166       Zr192   2.380       .  S
O166       Zr195   2.324       .  S
O167       Zr193   2.368       .  S
O167       Zr194   2.379       .  S
C169        C377   1.526       .  S
H172        O173   0.964       .  S
O173       Zr192   2.324       .  S
O173       Zr194   2.387       .  S
H174        O175   0.962       .  S
O175       Zr193   2.322       .  S
O175       Zr195   2.276       .  S
O176       Zr192   2.439       .  S
O176        C199   1.293       .  A
O177       Zr193   2.423       .  S
O177        C200   1.284       .  A
O178       Zr194   2.476       .  S
O178        C201   1.294       .  A
O179       Zr195   2.397       .  S
O179        C202   1.289       .  A
O180       Zr195   2.431       .  S
O180        C203   1.287       .  A
O181       Zr194   2.492       .  S
O181        C204   1.301       .  A
O182       Zr196   2.458       .  S
O182        C205   1.292       .  A
O183       Zr196   2.480       .  S
O183        C206   1.298       .  A
O184       Zr194   2.557       .  S
O184        C205   1.320       .  A
O185       Zr195   2.372       .  S
O185        C206   1.282       .  A
O186       Zr192   2.584       .  S
O186        C201   1.324       .  A
O187       Zr193   2.402       .  S
O187        C204   1.286       .  A
O188       Zr193   2.589       .  S
O188        C203   1.323       .  A
O189       Zr192   2.464       .  S
O189        C202   1.294       .  A
O190       Zr196   2.429       .  S
O190        C199   1.290       .  A
O191       Zr196   2.542       .  S
O191        C200   1.317       .  A
Zr192       O198   2.330       .  S
Zr192       O210   2.376       .  S
Zr193       O197   2.290       .  S
Zr193       O208   2.370       .  S
Zr194       O198   2.328       .  S
Zr194       O208   2.345       .  S
Zr195       O197   2.355       .  S
Zr195       O210   2.396       .  S
Zr196       O197   2.339       .  S
Zr196       O198   2.371       .  S
Zr196       O210   2.383       .  S
Zr196       O208   2.326       .  S
C199        C279   1.449       .  S
C202        C369   1.454       .  S
C205        C285   1.528       .  S
H207        O208   0.964       .  S
H209        O210   0.966       .  S
C211        N212   1.343       .  A
C211        N216   1.350       .  A
C211        C905   1.454       .  S
N212        C213   1.347       .  A
C213        N214   1.367       .  A
C213        C268   1.455       .  S
N214        C215   1.370       .  A
C215        N216   1.349       .  A
C215        C709   1.463       .  S
C217        N218   1.359       .  A
C217        N222   1.356       .  A
C217        C885   1.474   1_455  S
N218        C219   1.355       .  A
C219        N220   1.397       .  A
C219        C235   1.526       .  S
N220        C221   1.394       .  A
C221        N222   1.346       .  A
C221        C716   1.531       .  S
O223       Zr259   2.482       .  S
O223        C234   1.303       .  A
O224       Zr258   2.430       .  S
O224        C235   1.287       .  A
O225       Zr231   2.434       .  S
O225        C236   1.293       .  A
O226       Zr231   2.453       .  S
O226        C237   1.289       .  A
O227       Zr261   2.580       .  S
O227        C237   1.321       .  A
O228       Zr260   2.435       .  S
O228        C236   1.291       .  A
O229       Zr231   2.579       .  S
O229        C235   1.321       .  A
O230       Zr231   2.408       .  S
O230        C234   1.285       .  A
Zr231       O232   2.305       .  S
Zr231       O233   2.382       .  S
Zr231       O241   2.379       .  S
Zr231       O239   2.334       .  S
O232       Zr258   2.379       .  S
O232       Zr261   2.342       .  S
O233       Zr259   2.360       .  S
O233       Zr260   2.363       .  S
H238        O239   0.963       .  S
O239       Zr258   2.312       .  S
O239       Zr260   2.382       .  S
H240        O241   0.962       .  S
O241       Zr259   2.353       .  S
O241       Zr261   2.323       .  S
O242       Zr258   2.447       .  S
O242        C265   1.295       .  A
O243       Zr259   2.452       .  S
O243        C266   1.290       .  A
O244       Zr260   2.415       .  S
O244        C267   1.284       .  A
O245       Zr261   2.428       .  S
O245        C268   1.292       .  A
O246       Zr261   2.419       .  S
O246        C269   1.283       .  A
O247       Zr260   2.466       .  S
O247        C270   1.299       .  A
O248       Zr262   2.432       .  S
O248        C271   1.286       .  A
O249       Zr262   2.437       .  S
O249        C272   1.293       .  A
O250       Zr260   2.585       .  S
O250        C271   1.326       .  A
O251       Zr261   2.438       .  S
O251        C272   1.291       .  A
O252       Zr258   2.606       .  S
O252        C267   1.328       .  A
O253       Zr259   2.471       .  S
O253        C270   1.297       .  A
O254       Zr259   2.591       .  S
O254        C269   1.327       .  A
O255       Zr258   2.451       .  S
O255        C268   1.293       .  A
O256       Zr262   2.463       .  S
O256        C265   1.296       .  A
O257       Zr262   2.598       .  S
O257        C266   1.327       .  A
Zr258       O264   2.345       .  S
Zr258       O276   2.384       .  S
Zr259       O263   2.325       .  S
Zr259       O274   2.372       .  S
Zr260       O264   2.315       .  S
Zr260       O274   2.314       .  S
Zr261       O263   2.378       .  S
Zr261       O276   2.381       .  S
Zr262       O263   2.349       .  S
Zr262       O264   2.377       .  S
Zr262       O276   2.378       .  S
Zr262       O274   2.318       .  S
C265        C293   1.472       .  S
C269        C597   1.518       .  S
C271        C297   1.528       .  S
C272        C593   1.456       .  S
H273        O274   0.963       .  S
H275        O276   0.966       .  S
C277        N278   1.337       .  A
C277        N282   1.357       .  A
C277        C865   1.461       .  S
N278        C279   1.342       .  A
C279        N280   1.371       .  A
N280        C281   1.372       .  A
C281        N282   1.356       .  A
C281        C343   1.486       .  S
C283        N284   1.348       .  A
C283        N288   1.347       .  A
C283        C894   1.459       .  S
N284        C285   1.348       .  A
C285        N286   1.401       .  A
N286        C287   1.402       .  A
C287        N288   1.348       .  A
C287        C350   1.531       .  S
C289        N290   1.347       .  A
C289        N294   1.352       .  A
C289        C954   1.459       .  S
N290        C291   1.353       .  A
C291        N292   1.371       .  A
C291        C349   1.468       .  S
N292        C293   1.370       .  A
C293        N294   1.355       .  A
C295        N296   1.342       .  A
C295        N300   1.359       .  A
C295        C854   1.462       .  S
N296        C297   1.336       .  A
C297        N298   1.401       .  A
N298        C299   1.405       .  A
C299        N300   1.362       .  A
C299        C348   1.547       .  S
O301       Zr337   2.435       .  S
O301        C312   1.296       .  A
O302       Zr336   2.481       .  S
O302        C313   1.295       .  A
O303       Zr309   2.428       .  S
O303        C314   1.286       .  A
O304       Zr309   2.472       .  S
O304        C315   1.301       .  A
O305       Zr339   2.421       .  S
O305        C315   1.287       .  A
O306       Zr338   2.584       .  S
O306        C314   1.325       .  A
O307       Zr309   2.578       .  S
O307        C313   1.324       .  A
O308       Zr309   2.443       .  S
O308        C312   1.289       .  A
Zr309       O310   2.349       .  S
Zr309       O311   2.392       .  S
Zr309       O319   2.368       .  S
Zr309       O317   2.318       .  S
O310       Zr336   2.331       .  S
O310       Zr339   2.384       .  S
O311       Zr337   2.322       .  S
O311       Zr338   2.323       .  S
C313        C455   1.547       .  S
H316        O317   0.955       .  S
O317       Zr336   2.377       .  S
O317       Zr338   2.353       .  S
H318        O319   0.969       .  S
O319       Zr337   2.370       .  S
O319       Zr339   2.383       .  S
O320       Zr336   2.505       .  S
O320        C343   1.306       .  A
O321       Zr337   2.407       .  S
O321        C344   1.282       .  A
O322       Zr338   2.463       .  S
O322        C345   1.296       .  A
O323       Zr339   2.447       .  S
O323        C346   1.290       .  A
O324       Zr339   2.472       .  S
O324        C347   1.298       .  A
O325       Zr338   2.493       .  S
O325        C348   1.298       .  A
O326       Zr340   2.442       .  S
O326        C349   1.295       .  A
O327       Zr340   2.471       .  S
O327        C350   1.293       .  A
O328       Zr338   2.474       .  S
O328        C349   1.298       .  A
O329       Zr339   2.563       .  S
O329        C350   1.320       .  A
O330       Zr336   2.391       .  S
O330        C345   1.285       .  A
O331       Zr337   2.563       .  S
O331        C348   1.317       .  A
O332       Zr337   2.391       .  S
O332        C347   1.284       .  A
O333       Zr336   2.574       .  S
O333        C346   1.320       .  A
O334       Zr340   2.443       .  S
O334        C343   1.292       .  A
O335       Zr340   2.584       .  S
O335        C344   1.326       .  A
Zr336       O342   2.382       .  S
Zr336       O354   2.322       .  S
Zr337       O341   2.377       .  S
Zr337       O352   2.306       .  S
Zr338       O342   2.397       .  S
Zr338       O352   2.366       .  S
Zr339       O341   2.343       .  S
Zr339       O354   2.323       .  S
Zr340       O341   2.310       .  S
Zr340       O342   2.376       .  S
Zr340       O354   2.366       .  S
Zr340       O352   2.345       .  S
C345        C449   1.442       .  S
H351        O352   0.964       .  S
H353        O354   0.961       .  S
C355        N356   1.335       .  A
C355        N360   1.344       .  A
C355        C825   1.471       .  S
N356        C357   1.344       .  A
C357        N358   1.366       .  A
C357        C421   1.447       .  S
N358        C359   1.367       .  A
C359        N360   1.362       .  A
C359        C584   1.455       .  S
C361        N362   1.346       .  A
C361        N366   1.354       .  A
C361        C925   1.461       .  S
N362        C363   1.345       .  A
C363        N364   1.401       .  A
C363        C581   1.534       .  S
N364        C365   1.404       .  A
C365        N366   1.357       .  A
C365        C428   1.539       .  S
C367        N368   1.339       .  A
C367        N372   1.345       .  A
C367        C805   1.482       .  S
N368        C369   1.358       .  A
C369        N370   1.370       .  A
N370        C371   1.367       .  A
C371        N372   1.352       .  A
C371        C427   1.460       .  S
C373        N374   1.353       .  A
C373        N378   1.358       .  A
C373        C785   1.471       .  S
N374        C375   1.348       .  A
C375        N376   1.397       .  A
C375        C426   1.520       .  S
N376        C377   1.397       .  A
C377        N378   1.345       .  A
O379       Zr415   2.425       .  S
O379        C390   1.293       .  A
O380       Zr414   2.412       .  S
O380        C391   1.283       .  A
O381       Zr387   2.452       .  S
O381        C392   1.291       .  A
O382       Zr387   2.487       .  S
O382        C393   1.301       .  A
O383       Zr417   2.395       .  S
O383        C393   1.286       .  A
O384       Zr416   2.583       .  S
O384        C392   1.322       .  A
O385       Zr387   2.612       .  S
O385        C391   1.329       .  A
O386       Zr387   2.445       .  S
O386        C390   1.292       .  A
Zr387       O388   2.346       .  S
Zr387       O389   2.392       .  S
Zr387       O397   2.394       .  S
Zr387       O395   2.325       .  S
O388       Zr414   2.315       .  S
O388       Zr417   2.367       .  S
O389       Zr415   2.363       .  S
O389       Zr416   2.335       .  S
C391        C441   1.523       .  S
H394        O395   0.962       .  S
O395       Zr414   2.370       .  S
O395       Zr416   2.346       .  S
H396        O397   0.966       .  S
O397       Zr415   2.381       .  S
O397       Zr417   2.372       .  S
O398       Zr414   2.446       .  S
O398        C421   1.299       .  A
O399       Zr415   2.472       .  S
O399        C422   1.293       .  A
O400       Zr416   2.475       .  S
O400        C423   1.298       .  A
O401       Zr417   2.427       .  S
O401        C424   1.287       .  A
O402       Zr417   2.420       .  S
O402        C425   1.293       .  A
O403       Zr416   2.445       .  S
O403        C426   1.289       .  A
O404       Zr418   2.438       .  S
O404        C427   1.296       .  A
O405       Zr418   2.476       .  S
O405        C428   1.294       .  A
O406       Zr416   2.458       .  S
O406        C427   1.294       .  A
O407       Zr417   2.567       .  S
O407        C428   1.320       .  A
O408       Zr414   2.418       .  S
O408        C423   1.289       .  A
O409       Zr415   2.576       .  S
O409        C426   1.321       .  A
O410       Zr415   2.467       .  S
O410        C425   1.294       .  A
O411       Zr414   2.597       .  S
O411        C424   1.324       .  A
O412       Zr418   2.410       .  S
O412        C421   1.284       .  A
O413       Zr418   2.588       .  S
O413        C422   1.326       .  A
Zr414       O420   2.369       .  S
Zr414       O432   2.317       .  S
Zr415       O419   2.360       .  S
Zr415       O430   2.316       .  S
Zr416       O420   2.383       .  S
Zr416       O430   2.398       .  S
Zr417       O419   2.323       .  S
Zr417       O432   2.292       .  S
Zr418       O419   2.294       .  S
Zr418       O420   2.385       .  S
Zr418       O432   2.367       .  S
Zr418       O430   2.349       .  S
C423        C437   1.456       .  S
H429        O430   0.961       .  S
H431        O432   0.958       .  S
C433        N434   1.367       .  A
C433        N438   1.340       .  A
C433        C874   1.487       .  S
N434        C435   1.376       .  A
C435        N436   1.373       .  A
C435        C511   1.491       .  S
N436        C437   1.367       .  A
C437        N438   1.338       .  A
C439        N440   1.356       .  A
C439        N444   1.361       .  A
C439        C765   1.478       .  S
N440        C441   1.340       .  A
C441        N442   1.394       .  A
N442        C443   1.396       .  A
C443        N444   1.360       .  A
C443        C517   1.532       .  S
C445        N446   1.333       .  A
C445        N450   1.341       .  A
C445        C745   1.476       .  S
N446        C447   1.344       .  A
C447        N448   1.367       .  A
C447        C514   1.436       .  S
N448        C449   1.369       .  A
C449        N450   1.350       .  A
C451        N452   1.354       .  A
C451        N456   1.349       .  A
C451        C794   1.466       .  S
N452        C453   1.353       .  A
C453        N454   1.409       .  A
C453        C481   1.558       .  S
N454        C455   1.409       .  A
C455        N456   1.350       .  A
C457        N458   1.334       .  A
C457        N462   1.334       .  A
C457        C834   1.451       .  S
N458        C459   1.352       .  A
C459        N460   1.373       .  A
C459        C518   1.466       .  S
N460        C461   1.375       .  A
C461        N462   1.350       .  A
C461        C661   1.464       .  S
C463        N464   1.335       .  A
C463        N468   1.375       .  A
C463        C845   1.466       .  S
N464        C465   1.325       .  A
C465        N466   1.395       .  A
C465        C660   1.507       .  S
N466        C467   1.401       .  A
C467        N468   1.373       .  A
C467        C515   1.559       .  S
O469       Zr505   2.461       .  S
O469        C480   1.302       .  A
O470       Zr504   2.483       .  S
O470        C481   1.297       .  A
O471       Zr477   2.455       .  S
O471        C482   1.293       .  A
O472       Zr477   2.464       .  S
O472        C483   1.290       .  A
O473       Zr507   2.579       .  S
O473        C483   1.325       .  A
O474       Zr506   2.404       .  S
O474        C482   1.283       .  A
O475       Zr477   2.599       .  S
O475        C481   1.328       .  A
O476       Zr477   2.438       .  S
O476        C480   1.289       .  A
Zr477       O478   2.314       .  S
Zr477       O479   2.363       .  S
Zr477       O487   2.385       .  S
Zr477       O485   2.348       .  S
O478       Zr504   2.381       .  S
O478       Zr507   2.350       .  S
O479       Zr505   2.368       .  S
O479       Zr506   2.378       .  S
H484        O485   0.963       .  S
O485       Zr504   2.327       .  S
O485       Zr506   2.390       .  S
H486        O487   0.961       .  S
O487       Zr505   2.323       .  S
O487       Zr507   2.309       .  S
O488       Zr504   2.536       .  S
O488        C511   1.312       .  A
O489       Zr505   2.462       .  S
O489        C512   1.293       .  A
O490       Zr506   2.484       .  S
O490        C513   1.296       .  A
O491       Zr507   2.446       .  S
O491        C514   1.289       .  A
O492       Zr507   2.449       .  S
O492        C515   1.291       .  A
O493       Zr506   2.464       .  S
O493        C516   1.297       .  A
O494       Zr508   2.463       .  S
O494        C517   1.293       .  A
O495       Zr508   2.410       .  S
O495        C518   1.291       .  A
O496       Zr506   2.560       .  S
O496        C517   1.317       .  A
O497       Zr507   2.456       .  S
O497        C518   1.292       .  A
O498       Zr504   2.536       .  S
O498        C513   1.314       .  A
O499       Zr505   2.412       .  S
O499        C516   1.289       .  A
O500       Zr505   2.621       .  S
O500        C515   1.329       .  A
O501       Zr504   2.377       .  S
O501        C514   1.281       .  A
O502       Zr508   2.414       .  S
O502        C511   1.288       .  A
O503       Zr508   2.565       .  S
O503        C512   1.319       .  A
Zr504       O510   2.346       .  S
Zr504       O522   2.368       .  S
Zr505       O509   2.310       .  S
Zr505       O520   2.376       .  S
Zr506       O510   2.325       .  S
Zr506       O520   2.339       .  S
Zr507       O509   2.388       .  S
Zr507       O522   2.400       .  S
Zr508       O509   2.350       .  S
Zr508       O510   2.366       .  S
Zr508       O522   2.384       .  S
Zr508       O520   2.306       .  S
H519        O520   0.964       .  S
H521        O522   0.964       .  S
C523        N524   1.343       .  A
C523        N528   1.346       .  A
C523        C814   1.469       .  S
N524        C525   1.353       .  A
C525        N526   1.370       .  A
C525        C580   1.474       .  S
N526        C527   1.374       .  A
C527        N528   1.354       .  A
C527        C711   1.468       .  S
C529        N530   1.345       .  A
C529        N534   1.349       .  A
C529        C725   1.449       .  S
N530        C531   1.340       .  A
C531        N532   1.397       .  A
C531        C679   1.519       .  S
N532        C533   1.398       .  A
C533        N534   1.354       .  A
C533        C547   1.523       .  S
O535       Zr571   2.520       .  S
O535        C546   1.308       .  A
O536       Zr570   2.454       .  S
O536        C547   1.291       .  A
O537       Zr543   2.446       .  S
O537        C548   1.297       .  A
O538       Zr543   2.428       .  S
O538        C549   1.286       .  A
O539       Zr573   2.632       .  S
O539        C549   1.333       .  A
O540       Zr572   2.420       .  S
O540        C548   1.286       .  A
O541       Zr543   2.543       .  S
O541        C547   1.315       .  A
O542       Zr543   2.400       .  S
O542        C546   1.285       .  A
Zr543       O544   2.308       .  S
Zr543       O545   2.353       .  S
Zr543       O553   2.371       .  S
Zr543       O551   2.331       .  S
O544       Zr570   2.388       .  S
O544       Zr573   2.343       .  S
O545       Zr571   2.374       .  S
O545       Zr572   2.370       .  S
H550        O551   0.959       .  S
O551       Zr570   2.342       .  S
O551       Zr572   2.380       .  S
H552        O553   0.961       .  S
O553       Zr571   2.339       .  S
O553       Zr573   2.310       .  S
O554       Zr570   2.494       .  S
O554        C577   1.301       .  A
O555       Zr571   2.467       .  S
O555        C578   1.294       .  A
O556       Zr572   2.426       .  S
O556        C579   1.286       .  A
O557       Zr573   2.416       .  S
O557        C580   1.292       .  A
O558       Zr573   2.462       .  S
O558        C581   1.292       .  A
O559       Zr572   2.447       .  S
O559        C582   1.296       .  A
O560       Zr574   2.453       .  S
O560        C583   1.288       .  A
O561       Zr574   2.383       .  S
O561        C584   1.283       .  A
O562       Zr572   2.562       .  S
O562        C583   1.320       .  A
O563       Zr573   2.473       .  S
O563        C584   1.296       .  A
O564       Zr570   2.612       .  S
O564        C579   1.329       .  A
O565       Zr571   2.424       .  S
O565        C582   1.289       .  A
O566       Zr571   2.563       .  S
O566        C581   1.320       .  A
O567       Zr570   2.478       .  S
O567        C580   1.298       .  A
O568       Zr574   2.399       .  S
O568        C577   1.285       .  A
O569       Zr574   2.550       .  S
O569        C578   1.317       .  A
Zr570       O576   2.352       .  S
Zr570       O588   2.395       .  S
Zr571       O575   2.308       .  S
Zr571       O586   2.395       .  S
Zr572       O576   2.315       .  S
Zr572       O586   2.330       .  S
Zr573       O575   2.363       .  S
Zr573       O588   2.404       .  S
Zr574       O575   2.343       .  S
Zr574       O576   2.352       .  S
Zr574       O588   2.374       .  S
Zr574       O586   2.303       .  S
C577        C605   1.468       .  S
C583        C611   1.533       .  S
H585        O586   0.961       .  S
H587        O588   0.962       .  S
C589        N590   1.338       .  A
C589        N594   1.351       .  A
C589        C754   1.459       .  S
N590        C591   1.337       .  A
C591        N592   1.363       .  A
C591        C657   1.450       .  S
N592        C593   1.369       .  A
C593        N594   1.359       .  A
C595        N596   1.340       .  A
C595        N600   1.370       .  A
C595        C734   1.471       .  S
N596        C597   1.331       .  A
C597        N598   1.397       .  A
N598        C599   1.402       .  A
C599        N600   1.367       .  A
C599        C625   1.551       .  S
C601        N602   1.354       .  A
C601        N606   1.347       .  A
C601        C914   1.485       .  S
N602        C603   1.356       .  A
C603        N604   1.373       .  A
C603        C655   1.480       .  S
N604        C605   1.375       .  A
C605        N606   1.355       .  A
C607        N608   1.347       .  A
C607        N612   1.343       .  A
C607        C774   1.448       .  S
N608        C609   1.350       .  A
C609        N610   1.406       .  A
C609        C662   1.533       .  S
N610        C611   1.403       .  A
C611        N612   1.341       .  A
O613       Zr649   2.487       .  S
O613        C624   1.300       .  A
O614       Zr648   2.472       .  S
O614        C625   1.296       .  A
O615       Zr621   2.419       .  S
O615        C626   1.284       .  A
O616       Zr621   2.414       .  S
O616        C627   1.291       .  A
O617       Zr651   2.429       .  S
O617        C627   1.287       .  A
O618       Zr650   2.604       .  S
O618        C626   1.328       .  A
O619       Zr621   2.603       .  S
O619        C625   1.326       .  A
O620       Zr621   2.439       .  S
O620        C624   1.294       .  A
Zr621       O622   2.332       .  S
Zr621       O623   2.359       .  S
Zr621       O631   2.379       .  S
Zr621       O629   2.316       .  S
O622       Zr648   2.318       .  S
O622       Zr651   2.371       .  S
O623       Zr649   2.336       .  S
O623       Zr650   2.302       .  S
H628        O629   0.965       .  S
O629       Zr648   2.389       .  S
O629       Zr650   2.332       .  S
H630        O631   0.971       .  S
O631       Zr649   2.391       .  S
O631       Zr651   2.390       .  S
O632       Zr648   2.519       .  S
O632        C655   1.307       .  A
O633       Zr649   2.450       .  S
O633        C656   1.291       .  A
O634       Zr650   2.437       .  S
O634        C657   1.295       .  A
O635       Zr651   2.445       .  S
O635        C658   1.289       .  A
O636       Zr651   2.453       .  S
O636        C659   1.295       .  A
O637       Zr650   2.411       .  S
O637        C660   1.281       .  A
O638       Zr652   2.431       .  S
O638        C661   1.295       .  A
O639       Zr652   2.460       .  S
O639        C662   1.290       .  A
O640       Zr650   2.445       .  S
O640        C661   1.290       .  A
O641       Zr651   2.572       .  S
O641        C662   1.322       .  A
O642       Zr648   2.440       .  S
O642        C657   1.291       .  A
O643       Zr649   2.592       .  S
O643        C660   1.327       .  A
O644       Zr649   2.430       .  S
O644        C659   1.291       .  A
O645       Zr648   2.568       .  S
O645        C658   1.322       .  A
O646       Zr652   2.404       .  S
O646        C655   1.287       .  A
O647       Zr652   2.542       .  S
O647        C656   1.314       .  A
Zr648       O654   2.370       .  S
Zr648       O666   2.343       .  S
Zr649       O653   2.388       .  S
Zr649       O664   2.313       .  S
Zr650       O654   2.378       .  S
Zr650       O664   2.376       .  S
Zr651       O653   2.335       .  S
Zr651       O666   2.330       .  S
Zr652       O653   2.317       .  S
Zr652       O654   2.365       .  S
Zr652       O666   2.360       .  S
Zr652       O664   2.335       .  S
H663        O664   0.958       .  S
H665        O666   0.963       .  S
O667       Zr703   2.492       .  S
O667        C678   1.303       .  A
O668       Zr702   2.437       .  S
O668        C679   1.288       .  A
O669       Zr675   2.421       .  S
O669        C680   1.283       .  A
O670       Zr675   2.356       .  S
O670        C681   1.276       .  A
O671       Zr705   2.455       .  S
O671        C681   1.288       .  A
O672       Zr704   2.607       .  S
O672        C680   1.329       .  A
O673       Zr675   2.579       .  S
O673        C679   1.325       .  A
O674       Zr675   2.463       .  S
O674        C678   1.297       .  A
Zr675       O676   2.350       .  S
Zr675       O677   2.347       .  S
Zr675       O685   2.371       .  S
Zr675       O683   2.306       .  S
O676       Zr702   2.313       .  S
O676       Zr705   2.374       .  S
O677       Zr703   2.333       .  S
O677       Zr704   2.301       .  S
H682        O683   0.965       .  S
O683       Zr702   2.390       .  S
O683       Zr704   2.303       .  S
H684        O685   0.963       .  S
O685       Zr703   2.381       .  S
O685       Zr705   2.407       .  S
O686       Zr702   2.465       .  S
O686        C709   1.299       .  A
O687       Zr703   2.422       .  S
O687        C710   1.285       .  A
O688       Zr704   2.453       .  S
O688        C711   1.299       .  A
O689       Zr705   2.460       .  S
O689        C712   1.290       .  A
O690       Zr705   2.411       .  S
O690        C713   1.288       .  A
O691       Zr704   2.420       .  S
O691        C714   1.285       .  A
O692       Zr706   2.476       .  S
O692        C715   1.298       .  A
O693       Zr706   2.453       .  S
O693        C716   1.291       .  A
O694       Zr704   2.389       .  S
O694        C715   1.283       .  A
O695       Zr705   2.583       .  S
O695        C716   1.322       .  A
O696       Zr702   2.448       .  S
O696        C711   1.292       .  A
O697       Zr703   2.617       .  S
O697        C714   1.330       .  A
O698       Zr703   2.455       .  S
O698        C713   1.295       .  A
O699       Zr702   2.577       .  S
O699        C712   1.323       .  A
O700       Zr706   2.439       .  S
O700        C709   1.290       .  A
O701       Zr706   2.548       .  S
O701        C710   1.318       .  A
Zr702       O708   2.366       .  S
Zr702       O720   2.349       .  S
Zr703       O707   2.392       .  S
Zr703       O718   2.328       .  S
Zr704       O708   2.377       .  S
Zr704       O718   2.375       .  S
Zr705       O707   2.350       .  S
Zr705       O720   2.321       .  S
Zr706       O707   2.321       .  S
Zr706       O708   2.368       .  S
Zr706       O720   2.383       .  S
Zr706       O718   2.346       .  S
H717        O718   0.960       .  S
H719        O720   0.964       .  S
C721        C722   1.390       .  A
C721        C726   1.382       .  A
C721        H731   1.075   1_545  S
C722        C727   1.457   1_544  S
C722        C723   1.407       .  A
C723        C724   1.391       .  A
C723        F728   1.358   1_554  S
C724        C725   1.398       .  A
C724        H729   1.083       .  S
C725        C726   1.401       .  A
C726        F730   1.357       .  S
C727        C732   1.397       .  A
C727        C736   1.396   1_565  A
C732        C733   1.391       .  A
C732        F737   1.351       .  S
C733        C734   1.392   1_565  A
C733        H738   1.075       .  S
C734        C735   1.417       .  A
C735        C736   1.385       .  A
C735        F739   1.360       .  S
C736        H740   1.080       .  S
C741        C742   1.404       .  A
C741        C746   1.392       .  A
C741        H751   1.080       .  S
C742        C747   1.475       .  S
C742        C743   1.421       .  A
C743        C744   1.402       .  A
C743        F748   1.356       .  S
C744        C745   1.400       .  A
C744        H749   1.080       .  S
C745        C746   1.388       .  A
C746        F750   1.345       .  S
C747        C752   1.416       .  A
C747        C756   1.396       .  A
C752        C753   1.392       .  A
C752        F757   1.358       .  S
C753        C754   1.397       .  A
C753        H758   1.083       .  S
C754        C755   1.407       .  A
C755        C756   1.378       .  A
C755        F759   1.358       .  S
C756        H760   1.079       .  S
C761        C762   1.409       .  A
C761        C766   1.393       .  A
C761        H771   1.083       .  S
C762        C767   1.470       .  S
C762        C763   1.409       .  A
C763        C764   1.388       .  A
C763        F768   1.357       .  S
C764        C765   1.404       .  A
C764        H769   1.084       .  S
C765        C766   1.403       .  A
C766        F770   1.356       .  S
C767        C772   1.409       .  A
C767        C776   1.401       .  A
C772        C773   1.387   1_565  A
C772        F777   1.358       .  S
C773        C774   1.398       .  A
C773        H778   1.084       .  S
C774        C775   1.401       .  A
C775        C776   1.381   1_545  A
C775        F779   1.359       .  S
C776        H780   1.075       .  S
C781        C782   1.403       .  A
C781        C786   1.389       .  A
C781        H791   1.072       .  S
C782        C787   1.481       .  S
C782        C783   1.411       .  A
C783        C784   1.396       .  A
C783        F788   1.355       .  S
C784        C785   1.404       .  A
C784        H789   1.084       .  S
C785        C786   1.396       .  A
C786        F790   1.359       .  S
C787        C792   1.407   1_554  A
C787        C796   1.405   1_554  A
C792        C793   1.391       .  A
C792        F797   1.357   1_556  S
C793        C794   1.401       .  A
C793        H798   1.083       .  S
C794        C795   1.404       .  A
C795        C796   1.390       .  A
C795        F799   1.358       .  S
C796        H800   1.078       .  S
C801        C802   1.410       .  A
C801        C806   1.392       .  A
C801        H811   1.080       .  S
C802        C807   1.485       .  S
C802        C803   1.413       .  A
C803        C804   1.399       .  A
C803        F808   1.356       .  S
C804        C805   1.403       .  A
C804        H809   1.082       .  S
C805        C806   1.395       .  A
C806        F810   1.344       .  S
C807        C812   1.415       .  A
C807        C816   1.405       .  A
C812        C813   1.390       .  A
C812        F817   1.357       .  S
C813        C814   1.398       .  A
C813        H818   1.081       .  S
C814        C815   1.407       .  A
C815        C816   1.390       .  A
C815        F819   1.358       .  S
C816        H820   1.081       .  S
C821        C822   1.404       .  A
C821        C826   1.391       .  A
C821        H831   1.080       .  S
C822        C827   1.474       .  S
C822        C823   1.409       .  A
C823        C824   1.388       .  A
C823        F828   1.357       .  S
C824        C825   1.407       .  A
C824        H829   1.083       .  S
C825        C826   1.402       .  A
C826        F830   1.352       .  S
C827        C832   1.414       .  A
C827        C836   1.401       .  A
C832        C833   1.384       .  A
C832        F837   1.358       .  S
C833        C834   1.395       .  A
C833        H838   1.082       .  S
C834        C835   1.404       .  A
C835        C836   1.385       .  A
C835        F839   1.358       .  S
C836        H840   1.074       .  S
C841        C842   1.406       .  A
C841        C846   1.397       .  A
C841        H851   1.079   1_556  S
C842        C847   1.458       .  S
C842        C843   1.397       .  A
C843        C844   1.377       .  A
C843        F848   1.359       .  S
C844        C845   1.411       .  A
C844        H849   1.083       .  S
C845        C846   1.385       .  A
C846        F850   1.350   1_556  S
C847        C852   1.402       .  A
C847        C856   1.392       .  A
C852        C853   1.395       .  A
C852        F857   1.356       .  S
C853        C854   1.398   1_655  A
C853        H858   1.083       .  S
C854        C855   1.410       .  A
C855        C856   1.383   1_455  A
C855        F859   1.358       .  S
C856        H860   1.082       .  S
C861        C862   1.405       .  A
C861        C866   1.396       .  A
C861        H871   1.074       .  S
C862        C867   1.494       .  S
C862        C863   1.419       .  A
C863        C864   1.396       .  A
C863        F868   1.357       .  S
C864        C865   1.398       .  A
C864        H869   1.084       .  S
C865        C866   1.393       .  A
C866        F870   1.356       .  S
C867        C872   1.408       .  A
C867        C876   1.403       .  A
C872        C873   1.398       .  A
C872        F877   1.345       .  S
C873        C874   1.391       .  A
C873        H878   1.078       .  S
C874        C875   1.417       .  A
C875        C876   1.398       .  A
C875        F879   1.358       .  S
C876        H880   1.083       .  S
C881        C882   1.407       .  A
C881        C886   1.386       .  A
C881        H891   1.077       .  S
C882        C887   1.485   1_545  S
C882        C883   1.414       .  A
C883        C884   1.395       .  A
C883        F888   1.358       .  S
C884        C885   1.403       .  A
C884        H889   1.083       .  S
C885        C886   1.403       .  A
C886        F890   1.358       .  S
C887        C892   1.413       .  A
C887        C896   1.409   1_655  A
C892        C893   1.386   1_655  A
C892        F897   1.354       .  S
C893        C894   1.398       .  A
C893        H898   1.084   1_455  S
C894        C895   1.401       .  A
C895        C896   1.387       .  A
C895        F899   1.358       .  S
C896        H900   1.081       .  S
C901        C902   1.408       .  A
C901        C906   1.391       .  A
C901        H911   1.082       .  S
C902        C907   1.473       .  S
C902        C903   1.409       .  A
C903        C904   1.382       .  A
C903        F908   1.357       .  S
C904        C905   1.395       .  A
C904        H909   1.084       .  S
C905        C906   1.405       .  A
C906        F910   1.358       .  S
C907        C912   1.410       .  A
C907        C916   1.399       .  A
C912        C913   1.399       .  A
C912        F917   1.358       .  S
C913        C914   1.407       .  A
C913        H918   1.083       .  S
C914        C915   1.400       .  A
C915        C916   1.387       .  A
C915        F919   1.352       .  S
C916        H920   1.068       .  S
C921        C922   1.408       .  A
C921        C926   1.393       .  A
C921        H931   1.083       .  S
C922        C927   1.473       .  S
C922        C923   1.404       .  A
C923        C924   1.385       .  A
C923        F928   1.354       .  S
C924        C925   1.402       .  A
C924        H929   1.083       .  S
C925        C926   1.400       .  A
C926        F930   1.358       .  S
C927        C932   1.411   1_655  A
C927        C936   1.406   1_655  A
C932        C933   1.395       .  A
C932        F937   1.350   1_455  S
C933        C934   1.399       .  A
C933        H938   1.083       .  S
C934        C935   1.402       .  A
C935        C936   1.392       .  A
C935        F939   1.358       .  S
C936        H940   1.081   1_455  S
C941        C942   1.412       .  A
C941        C946   1.397       .  A
C941        H951   1.077       .  S
C942        C947   1.474       .  S
C942        C943   1.419       .  A
C943        C944   1.397       .  A
C943        F948   1.356       .  S
C944        C945   1.399       .  A
C944        H949   1.082       .  S
C945        C946   1.401       .  A
C946        F950   1.359       .  S
C947        C952   1.393       .  A
C947        C956   1.408       .  A
C952        C953   1.386       .  A
C952        F957   1.343       .  S
C953        C954   1.394       .  A
C953        H958   1.081       .  S
C954        C955   1.406       .  A
C955        C956   1.401       .  A
C955        F959   1.357       .  S
C956        H960   1.083       .  S
C961        C962   1.405       .  A
C961        C966   1.386   1_565  A
C961        H971   1.082       .  S
C962        C967   1.479       .  S
C962        C963   1.413       .  A
C963        C964   1.386       .  A
C963        F968   1.358       .  S
C964        C965   1.398   1_565  A
C964        H969   1.084       .  S
C965        C966   1.404       .  A
C966        F970   1.358   1_655  S
C967        C972   1.412       .  A
C967        C976   1.406       .  A
C972        C973   1.397       .  A
C972        F977   1.358       .  S
C973        C974   1.402       .  A
C973        H978   1.083       .  S
C974        C975   1.406       .  A
C975        C976   1.393       .  A
C975        F979   1.353   1_655  S
C976        H980   1.081   1_655  S
C981        C982   1.397       .  A
C981        C986   1.387       .  A
C981        H991   1.083   1_655  S
C982        C987   1.458       .  S
C982        C983   1.402       .  A
C983        C984   1.383       .  A
C983        F988   1.349       .  S
C984        C985   1.393       .  A
C984        H989   1.083       .  S
C985        C986   1.411       .  A
C986        F990   1.359   1_655  S
C987        C992   1.398   1_655  A
C987        C996   1.408       .  A
C992        C993   1.379   1_455  A
C992        F997   1.358       .  S
C993        C994   1.408       .  A
C993        H998   1.083   1_655  S
C994        C995   1.384       .  A
C995        C996   1.389       .  A
C995        F999   1.349       .  S
C996       H1000   1.080       .  S
C1001      C1002   1.412       .  A
C1001      C1006   1.398       .  A
C1001      H1011   1.081       .  S
C1002      C1007   1.471       .  S
C1002      C1003   1.408       .  A
C1003      C1004   1.386       .  A
C1003      F1008   1.357   1_655  S
C1004      C1005   1.396       .  A
C1004      H1009   1.085       .  S
C1005      C1006   1.404       .  A
C1006      F1010   1.357       .  S
C1007      C1012   1.407       .  A
C1007      C1016   1.401       .  A
C1012      C1013   1.392       .  A
C1012      F1017   1.358       .  S
C1013      C1014   1.400       .  A
C1013      H1018   1.083       .  S
C1014      C1015   1.404       .  A
C1015      C1016   1.382       .  A
C1015      F1019   1.358       .  S
C1016      H1020   1.080       .  S
C1021      C1022   1.414       .  A
C1021      C1026   1.385       .  A
C1021      H1031   1.082       .  S
C1022      C1027   1.479       .  S
C1022      C1023   1.403       .  A
C1023      C1024   1.388   1_565  A
C1023      F1028   1.353   1_655  S
C1024      C1025   1.402       .  A
C1024      H1029   1.084       .  S
C1025      C1026   1.395   1_545  A
C1026      F1030   1.358       .  S
C1027      C1032   1.406       .  A
C1027      C1036   1.403       .  A
C1032      C1033   1.395       .  A
C1032      F1037   1.358       .  S
C1033      C1034   1.404       .  A
C1033      H1038   1.083       .  S
C1034      C1035   1.410       .  A
C1035      C1036   1.390       .  A
C1035      F1039   1.358   1_655  S
C1036      H1040   1.080   1_655  S
C1041      C1042   1.402       .  A
C1041      C1046   1.381       .  A
C1041      H1051   1.077   1_565  S
C1042      C1047   1.487       .  S
C1042      C1043   1.416       .  A
C1043      C1044   1.395       .  A
C1043      F1048   1.357       .  S
C1044      C1045   1.399       .  A
C1044      H1049   1.083       .  S
C1045      C1046   1.403       .  A
C1046      F1050   1.359   1_565  S
C1047      C1052   1.417   1_565  A
C1047      C1056   1.410       .  A
C1052      C1053   1.386       .  A
C1052      F1057   1.356       .  S
C1053      C1054   1.399   1_545  A
C1053      H1058   1.084       .  S
C1054      C1055   1.403       .  A
C1055      C1056   1.396       .  A
C1055      F1059   1.357       .  S
C1056      H1060   1.082       .  S
C1061      C1062   1.420   1_545  A
C1061      C1066   1.388   1_545  A
C1061      H1071   1.079       .  S
C1062      C1067   1.504   1_556  S
C1062      C1063   1.422       .  A
C1063      C1064   1.389       .  A
C1063      F1068   1.352       .  S
C1064      C1065   1.397       .  A
C1064      H1069   1.084       .  S
C1065      C1066   1.400       .  A
C1066      F1070   1.359   1_565  S
C1067      C1072   1.404       .  A
C1067      C1076   1.408   1_565  A
C1072      C1073   1.387       .  A
C1072      F1077   1.355       .  S
C1073      C1074   1.400       .  A
C1073      H1078   1.084       .  S
C1074      C1075   1.409   1_565  A
C1075      C1076   1.392       .  A
C1075      F1079   1.358       .  S
C1076      H1080   1.082       .  S
C1081      C1082   1.408   1_545  A
C1081      C1086   1.389       .  A
C1081      H1091   1.078       .  S
C1082      C1087   1.479       .  S
C1082      C1083   1.416       .  A
C1083      C1084   1.393       .  A
C1083      F1088   1.358       .  S
C1084      C1085   1.398       .  A
C1084      H1089   1.083       .  S
C1085      C1086   1.404   1_565  A
C1086      F1090   1.358       .  S
C1087      C1092   1.411   1_565  A
C1087      C1096   1.407       .  A
C1092      C1093   1.387       .  A
C1092      F1097   1.355       .  S
C1093      C1094   1.401   1_545  A
C1093      H1098   1.083       .  S
C1094      C1095   1.400       .  A
C1095      C1096   1.384       .  A
C1095      F1099   1.358       .  S
C1096      H1100   1.082       .  S
C1101      C1102   1.410       .  A
C1101      C1106   1.395   1_556  A
C1101      H1111   1.083       .  S
C1102      C1107   1.467       .  S
C1102      C1103   1.401   1_556  A
C1103      C1104   1.382       .  A
C1103      F1108   1.357   1_565  S
C1104      C1105   1.403       .  A
C1104      H1109   1.084   1_565  S
C1105      C1106   1.400       .  A
C1106      F1110   1.358       .  S
C1107      C1112   1.406       .  A
C1107      C1116   1.404       .  A
C1112      C1113   1.396       .  A
C1112      F1117   1.357       .  S
C1113      C1114   1.406       .  A
C1113      H1118   1.081       .  S
C1114      C1115   1.406       .  A
C1115      C1116   1.387       .  A
C1115      F1119   1.357   1_565  S
C1116      H1120   1.082   1_565  S
C1121      C1122   1.393       .  A
C1121      C1126   1.378       .  A
C1121      H1131   1.079       .  S
C1122      C1127   1.441       .  S
C1122      C1123   1.403   1_554  A
C1123      C1124   1.389       .  A
C1123      F1128   1.358       .  S
C1124      C1125   1.398   1_556  A
C1124      H1129   1.084       .  S
C1125      C1126   1.393       .  A
C1126      F1130   1.355       .  S
C1127      C1132   1.397       .  A
C1127      C1136   1.397   1_554  A
C1132      C1133   1.383       .  A
C1132      F1137   1.353       .  S
C1133      C1134   1.401       .  A
C1133      H1138   1.084       .  S
C1134      C1135   1.410   1_554  A
C1135      C1136   1.389       .  A
C1135      F1139   1.359       .  S
C1136      H1140   1.084       .  S
C1141      C1142   1.404       .  A
C1141      C1146   1.397       .  A
C1141      H1151   1.084       .  S
C1142      C1147   1.465       .  S
C1142      C1143   1.389   1_556  A
C1143      C1144   1.388       .  A
C1143      F1148   1.346   1_545  S
C1144      C1145   1.398       .  A
C1144      H1149   1.084   1_655  S
C1145      C1146   1.407   1_554  A
C1146      F1150   1.358       .  S
C1147      C1152   1.411   1_556  A
C1147      C1156   1.403       .  A
C1152      C1153   1.394       .  A
C1152      F1157   1.357       .  S
C1153      C1154   1.401       .  A
C1153      H1158   1.082       .  S
C1154      C1155   1.403   1_554  A
C1155      C1156   1.393       .  A
C1155      F1159   1.357       .  S
C1156      H1160   1.076       .  S
C1161      C1162   1.401       .  A
C1161      C1166   1.391       .  A
C1161      H1171   1.083       .  S
C1162      C1167   1.439       .  S
C1162      C1163   1.400   1_556  A
C1163      C1164   1.367       .  A
C1163      F1168   1.359       .  S
C1164      C1165   1.394   1_554  A
C1164      H1169   1.085       .  S
C1165      C1166   1.400       .  A
C1166      F1170   1.357       .  S
C1167      C1172   1.394       .  A
C1167      C1176   1.399   1_556  A
C1172      C1173   1.383       .  A
C1172      F1177   1.357       .  S
C1173      C1174   1.408       .  A
C1173      H1178   1.083       .  S
C1174      C1175   1.404   1_556  A
C1175      C1176   1.380       .  A
C1175      F1179   1.359       .  S
C1176      H1180   1.085       .  S
C1181      C1182   1.406   1_556  A
C1181      C1186   1.386       .  A
C1181      H1191   1.079       .  S
C1182      C1187   1.480       .  S
C1182      C1183   1.412       .  A
C1183      C1184   1.391       .  A
C1183      F1188   1.352       .  S
C1184      C1185   1.400       .  A
C1184      H1189   1.083       .  S
C1185      C1186   1.404   1_554  A
C1186      F1190   1.351       .  S
C1187      C1192   1.408   1_554  A
C1187      C1196   1.410       .  A
C1192      C1193   1.382       .  A
C1192      F1197   1.348       .  S
C1193      C1194   1.398   1_556  A
C1193      H1198   1.084   1_655  S
C1194      C1195   1.401       .  A
C1195      C1196   1.384       .  A
C1195      F1199   1.357       .  S
C1196      H1200   1.080       .  S
