geometry optimzed in LAMMPS
_audit_creation_date              2020-11-30 
_audit_creation_method            'lammps2cif' 
_symmetry_space_group_name_H-M    'P1' 
_symmetry_Int_Tables_number       1 
_symmetry_cell_setting            triclinic 
loop_ 
_symmetry_equiv_pos_as_xyz 
  x,y,z 
_cell_length_a                    39.83447671 
_cell_length_b                    37.67120094644614 
_cell_length_c                    32.15480385409296 
_cell_angle_alpha                 88.6873347805594 
_cell_angle_beta                  93.90306808252235 
_cell_angle_gamma                 122.17357321600454 
loop_ 
_atom_site_label 
_atom_site_type_symbol 
_atom_site_fract_x 
_atom_site_fract_y 
_atom_site_fract_z 
_atom_site_charge 
C1          C  0.33898079  0.18969110  0.07340765     0.31800
C2          C  0.35453558  0.20047077  0.49319583     0.31800
C3          C  0.30289646  0.17331257  0.04295019    -0.04400
C4          C  0.36672863  0.23574907  0.06084574    -0.05200
C5          C  0.36033212  0.16837932  0.05871786    -0.05100
C6          C  0.31007465  0.17807340  0.50144733    -0.04400
C7          C  0.37419145  0.24055312  0.51940919    -0.05200
C8          C  0.36768538  0.17336224  0.51674502    -0.05100
C9          C  0.27318823  0.16046296  0.47953985    -0.30500
N10         N  0.24495744  0.14629650  0.50777051     0.16000
C11         C  0.26282608  0.15387258  0.04645067    -0.30500
H12         H  0.24757854  0.14519356  0.07508688     0.18000
C13         C  0.39746263  0.28263342  0.51154290    -0.29500
N14         N  0.40454981  0.30390651  0.04747994     0.14700
C15         C  0.38636497  0.27596110  0.07822835    -0.29500
C16         C  0.38556962  0.15162066  0.50844094    -0.29700
N17         N  0.39122499  0.13587257  0.54457011     0.15300
H18         H  0.39373820  0.14698884  0.47858444     0.17900
C19         C  0.37631237  0.14593546  0.07565847    -0.29800
H20         H  0.37777241  0.13803450  0.10799807     0.17900
H21         H  0.38691263  0.28438346  0.11031385     0.17900
H22         H  0.26730413  0.15777269  0.44603062     0.18000
H23         H  0.40784802  0.29686727  0.48170903     0.17900
C24         C  0.36133767  0.21018920  0.32347257     0.31800
C25         C  0.33938295  0.19444956  0.24230299     0.31800
C26         C  0.31616322  0.18309400  0.31262477    -0.04400
C27         C  0.37525372  0.24861399  0.29677901    -0.05200
C28         C  0.37657403  0.18566791  0.30226702    -0.05100
C29         C  0.30549766  0.17588844  0.27076837    -0.04400
C30         C  0.36462041  0.24126349  0.25481270    -0.05200
C31         C  0.36583067  0.17826540  0.25986794    -0.05100
C32         C  0.26489939  0.15221505  0.26551050    -0.30500
N33         N  0.25048149  0.14454883  0.30360910     0.16000
C34         C  0.28118372  0.16280922  0.33298173    -0.30500
H35         H  0.27816133  0.16120612  0.36629348     0.18000
C36         C  0.38266887  0.28022436  0.23626426    -0.29500
N37         N  0.40256098  0.30979459  0.26679557     0.14700
C38         C  0.39839857  0.29098321  0.30383753    -0.29500
C39         C  0.38166356  0.15627648  0.24554226    -0.29700
N40         N  0.39976121  0.14861166  0.27844990     0.15300
H41         H  0.37984415  0.14589826  0.21392069     0.17900
C42         C  0.39628078  0.16542168  0.31331258    -0.29800
H43         H  0.40595561  0.16115523  0.34418584     0.17900
H44         H  0.41186598  0.30699894  0.33346923     0.17900
H45         H  0.24711533  0.14108176  0.23629110     0.18000
H46         H  0.38228819  0.28681793  0.20337827     0.17900
C47         C  0.12809154  0.07333913  0.01436286     0.78200
Tb48       Tb  0.46766102  0.01369075  0.02461485     1.80700
O49         O  0.12114778  0.05071128  0.04612747    -0.49800
O50         O  0.09094719  0.48589070  0.05988668    -0.57300
C51         C  0.05173022  0.09336393  0.04277107     0.94000
O52         O  0.45508634  0.05402359  0.56915461    -0.56800
Tb53       Tb  0.05162092  0.01246047  0.03610963     1.78100
O54         O  0.40732360  0.48662641  0.98417946    -0.57300
O55         O  0.49906934  0.45259789  0.06441836    -0.76100
O56         O  0.05797385  0.07083330  0.06725687    -0.75400
O57         O  0.03347205  0.00980797  0.45709456    -0.60700
C58         C  0.46768070  0.43023306  0.04212668     0.93600
O59         O  0.48194707  0.01233653  0.10394689    -0.72600
C60         C  0.38634779  0.95749646  0.00838842     0.77100
C61         C  0.07488463  0.45451764  0.03554444     0.78000
O62         O  0.09717090  0.06713217  0.49388688    -0.57900
O63         O  0.04689047  0.45130102  0.01165092    -0.49800
O64         O  0.48266080  0.01809597  0.44947317    -0.75900
O65         O  0.03934660  0.01574369  0.11185628    -0.59900
C66         C  0.01000653  0.01410777  0.12967766     0.91800
C67         C  0.00870967  0.01413107  0.43149860     0.93100
C68         C  0.44181028  0.06782148  0.54073823     0.77400
O69         O  0.40545704  0.95578590  0.04044331    -0.49200
O70         O  0.44249513  0.55595920  0.50476095    -0.50400
O71         O  0.45773366  0.44714170  0.01375586    -0.63200
O72         O  0.02682499  0.07633236  0.01207962    -0.64300
C73         C  0.13235732  0.07104949  0.30259662     0.78200
Tb74       Tb  0.46721948  0.01624803  0.27502654     1.80700
O75         O  0.11141351  0.04193550  0.32683240    -0.49800
O76         O  0.07628812  0.47275517  0.30644945    -0.57300
C77         C  0.05114667  0.09842131  0.26918899     0.94000
O78         O  0.47207685  0.07746694  0.29948024    -0.56800
Tb79       Tb  0.05103477  0.01492563  0.28653832     1.78100
O80         O  0.39769527  0.47805964  0.26500848    -0.57300
O81         O  0.49191594  0.45226179  0.29914861    -0.76100
O82         O  0.06098962  0.08146480  0.29760347    -0.75400
O83         O  0.03675197  0.01624405  0.20719546    -0.60700
C84         C  0.46694937  0.43520484  0.26851087     0.93600
O85         O  0.48532297  0.01892779  0.35405854    -0.72600
C86         C  0.39073417  0.95550479  0.29683339     0.77100
C87         C  0.07700036  0.46089208  0.27048182     0.78000
O88         O  0.11320943  0.07279969  0.27059587    -0.57900
O89         O  0.06364680  0.47459565  0.24204710    -0.49800
O90         O  0.47938384  0.01288524  0.19927286    -0.75900
O91         O  0.03608291  0.01056469  0.36168930    -0.59900
C92         C  0.01006118  0.01457463  0.37966212     0.91800
C93         C  0.00870496  0.01448618  0.18145577     0.93100
C94         C  0.44413046  0.07432246  0.27556205     0.77400
O95         O  0.42164293  0.96173243  0.31735296    -0.49200
O96         O  0.42804218  0.54296963  0.25119220    -0.50400
O97         O  0.46070051  0.45772489  0.24400821    -0.63200
O98         O  0.01987273  0.07604996  0.24673968    -0.64300
C99         C  0.15736112  0.31830410  0.98780271     0.31800
C100        C  0.17944033  0.33411176  0.06895483     0.31800
C101        C  0.14224341  0.34293541  0.00901260    -0.04400
C102        C  0.14340503  0.27990327  0.01453633    -0.05200
C103        C  0.20255152  0.34531765  0.99859044    -0.05100
C104        C  0.15305118  0.35038455  0.05139777    -0.04400
C105        C  0.15409531  0.28728467  0.05649499    -0.05200
C106        C  0.21328608  0.35254355  0.04043422    -0.05100
C107        C  0.13730254  0.37247036  0.06571250    -0.30500
N108        N  0.11919683  0.38013805  0.03280949     0.16000
C109        C  0.12258493  0.36323291  0.99796546    -0.30500
H110        H  0.11288361  0.36747569  0.46709723     0.18000
C111        C  0.13604700  0.24833537  0.07507039    -0.29500
N112        N  0.11610350  0.21875014  0.04456174     0.14700
C113        C  0.12023451  0.23753457  0.00751016    -0.29500
C114        C  0.25389603  0.37615908  0.04561097    -0.29700
N115        N  0.26824755  0.38379357  0.00747555     0.15300
H116        H  0.27173077  0.38731754  0.07479801     0.17900
C117        C  0.23749173  0.36555883  0.97816280    -0.29800
H118        H  0.24045086  0.36718451  0.44483971     0.17900
H119        H  0.10674566  0.22149980  0.47789164     0.17900
H120        H  0.13917941  0.38290556  0.09732367     0.18000
H121        H  0.13647536  0.24175679  0.10795572     0.17900
C122        C  0.17978962  0.33896062  0.23786585     0.31800
C123        C  0.16430265  0.32829611  0.31810421     0.31800
C124        C  0.15852711  0.36036971  0.25255657    -0.04400
C125        C  0.15199087  0.29292771  0.25047608    -0.05200
C126        C  0.21589155  0.35531887  0.26830162    -0.05100
C127        C  0.15121485  0.35544941  0.29454270    -0.04400
C128        C  0.14456119  0.28817949  0.29192086    -0.05200
C129        C  0.20874487  0.35061150  0.30981419    -0.05100
C130        C  0.13344697  0.37730623  0.30285457    -0.30500
N131        N  0.12781133  0.39306008  0.26671896     0.16000
C132        C  0.14262847  0.38289046  0.23561914    -0.30500
H133        H  0.14114536  0.39075846  0.20327112     0.18000
C134        C  0.12126911  0.24610439  0.29983150    -0.29500
N135        N  0.11413975  0.22478332  0.26391531     0.14700
C136        C  0.13231269  0.25269357  0.23313653    -0.29500
C137        C  0.24564555  0.36829861  0.33170056    -0.29700
N138        N  0.27386101  0.38247039  0.30345134     0.15300
H139        H  0.25155022  0.37106780  0.36520658     0.17900
C140        C  0.25596505  0.37481883  0.26477844    -0.29800
H141        H  0.27119747  0.38351796  0.23613142     0.17900
H142        H  0.13174985  0.24423139  0.20106207     0.17900
H143        H  0.12532534  0.38199108  0.33271581     0.18000
H144        H  0.11092163  0.23190608  0.32968658     0.17900
C145        C  0.16855590  0.29240709  0.42487217    -0.11600
C146        C  0.14668308  0.30592368  0.44384462     0.10600
C147        C  0.11862271  0.31042337  0.42013362    -0.11600
C148        C  0.12262433  0.31591724  0.37791848    -0.11600
C149        C  0.15486860  0.31726627  0.36130252     0.10600
C150        C  0.17362073  0.29931531  0.38330957    -0.11600
H151        H  0.18630104  0.28280151  0.44291663     0.14500
H152        H  0.09468022  0.31046015  0.43377882     0.14500
H153        H  0.10102080  0.31917009  0.35901939     0.14500
H154        H  0.19371506  0.29292682  0.36897733     0.14500
C155        C  0.20233953  0.31712848  0.13559024    -0.11600
C156        C  0.19507853  0.34439574  0.11238497     0.10600
C157        C  0.20241236  0.38117198  0.13111715    -0.11600
C158        C  0.20066595  0.38162317  0.17362042    -0.11600
C159        C  0.19244012  0.34557592  0.19536655     0.10600
C160        C  0.20091130  0.31767826  0.17801122    -0.11600
H161        H  0.20498559  0.29316065  0.12107005     0.14500
H162        H  0.20564329  0.40726913  0.11301950     0.14500
H163        H  0.20350840  0.40854068  0.18864642     0.14500
H164        H  0.20279562  0.29431686  0.19644376     0.14500
C165        C  0.09298288  0.18082924  0.26122971    -0.11500
C166        C  0.07437233  0.14305019  0.26341603    -0.13100
C167        C  0.31533773  0.40487032  0.31052395    -0.11500
C168        C  0.35091716  0.42639213  0.30846149    -0.13100
C169        C  0.10900370  0.41573999  0.26289250    -0.11500
C170        C  0.09317438  0.43555224  0.26331873    -0.13100
C171        C  0.09384730  0.17536880  0.04916946    -0.11500
C172        C  0.07428822  0.13776210  0.04832340    -0.13100
C173        C  0.34434814  0.42993470  0.00122886    -0.11500
C174        C  0.30877044  0.40797535  0.00101321    -0.13100
C175        C  0.08824477  0.42597274  0.03460445    -0.11500
C176        C  0.10197676  0.40421198  0.03397058    -0.13100
C177        C  0.43081019  0.10288957  0.27654782    -0.11500
C178        C  0.41705020  0.12461416  0.27725145    -0.13100
C179        C  0.42481584  0.35318205  0.26220288    -0.11500
C180        C  0.44436781  0.39079296  0.26301790    -0.13100
C181        C  0.17436078  0.09854744  0.30969344    -0.11500
C182        C  0.20994196  0.12042963  0.30997193    -0.13100
C183        C  0.42576605  0.09328171  0.54792923    -0.11500
C184        C  0.41001288  0.11317051  0.54837801    -0.13100
C185        C  0.42575214  0.34785469  0.05021601    -0.11500
C186        C  0.44441762  0.38562905  0.04801218    -0.13100
C187        C  0.16790336  0.10248232  0.00273651    -0.11500
C188        C  0.20348481  0.12397474  0.00067683    -0.13100
C189        C  0.39623488  0.21290799  0.43338671    -0.11600
C190        C  0.36398965  0.21154213  0.45001350     0.10600
C191        C  0.34514502  0.22936935  0.42796713    -0.11600
C192        C  0.35005391  0.23605391  0.38636305    -0.11600
C193        C  0.37195328  0.22254494  0.36742963     0.10600
C194        C  0.40011789  0.21821653  0.39114464    -0.11600
H195        H  0.41790919  0.20977947  0.45229420     0.14500
H196        H  0.32505555  0.23576893  0.44229347     0.14500
H197        H  0.33222865  0.24554264  0.36829339     0.14500
H198        H  0.42405496  0.21817633  0.37749129     0.14500
C199        C  0.31815735  0.14697291  0.13761314    -0.11600
C200        C  0.32629693  0.18300238  0.11588812     0.10600
C201        C  0.31778235  0.21084792  0.13327903    -0.11600
C202        C  0.31642452  0.21140269  0.17570538    -0.11600
C203        C  0.32379317  0.18419072  0.19886951     0.10600
C204        C  0.31648758  0.14743060  0.18012477    -0.11600
H205        H  0.31534761  0.12008163  0.12256370     0.14500
H206        H  0.31583763  0.23418601  0.11486891     0.14500
H207        H  0.31374488  0.23533622  0.19025327     0.14500
H208        H  0.31332936  0.12135602  0.19820881     0.14500
C209        C  0.33898086  0.18969113  0.57340763     0.31800
C210        C  0.35453548  0.20047071  0.99319583     0.31800
C211        C  0.30289655  0.17331264  0.54295015    -0.04400
C212        C  0.36672875  0.23574911  0.56084577    -0.05200
C213        C  0.36033213  0.16837932  0.55871782    -0.05100
C214        C  0.31007456  0.17807331  0.00144736    -0.04400
C215        C  0.37419130  0.24055306  0.01940918    -0.05200
C216        C  0.36768535  0.17336224  0.01674504    -0.05100
C217        C  0.27318815  0.16046294  0.97953989    -0.30500
N218        N  0.24495738  0.14629653  0.00777055     0.16000
C219        C  0.26282617  0.15387256  0.54645065    -0.30500
H220        H  0.24757869  0.14519359  0.57508682     0.18000
C221        C  0.39746259  0.28263337  0.01154282    -0.29500
N222        N  0.40454984  0.30390656  0.54747994     0.14700
C223        C  0.38636498  0.27596114  0.57822840    -0.29500
C224        C  0.38556960  0.15162067  0.00844090    -0.29700
N225        N  0.39122496  0.13587255  0.04457013     0.15300
H226        H  0.39373812  0.14698883  0.97858450     0.17900
C227        C  0.37631237  0.14593546  0.57565853    -0.29800
H228        H  0.37777240  0.13803461  0.60799787     0.17900
H229        H  0.38691256  0.28438347  0.61031381     0.17900
H230        H  0.26730405  0.15777267  0.94603062     0.18000
H231        H  0.40784797  0.29686713  0.98170914     0.17900
C232        C  0.36133767  0.21018920  0.82347260     0.31800
C233        C  0.33938301  0.19444960  0.74230298     0.31800
C234        C  0.31616323  0.18309399  0.81262474    -0.04400
C235        C  0.37525369  0.24861399  0.79677905    -0.05200
C236        C  0.37657404  0.18566792  0.80226703    -0.05100
C237        C  0.30549769  0.17588845  0.77076833    -0.04400
C238        C  0.36462040  0.24126352  0.75481276    -0.05200
C239        C  0.36583072  0.17826544  0.75986795    -0.05100
C240        C  0.26489941  0.15221512  0.76551045    -0.30500
N241        N  0.25048150  0.14454894  0.80360902     0.16000
C242        C  0.28118373  0.16280927  0.83298174    -0.30500
H243        H  0.27816135  0.16120621  0.86629329     0.18000
C244        C  0.38266885  0.28022441  0.73626429    -0.29500
N245        N  0.40256099  0.30979463  0.76679566     0.14700
C246        C  0.39839855  0.29098323  0.80383762    -0.29500
C247        C  0.38166367  0.15627659  0.74554225    -0.29700
N248        N  0.39976131  0.14861177  0.77844989     0.15300
H249        H  0.37984427  0.14589836  0.71392065     0.17900
C250        C  0.39628082  0.16542171  0.81331259    -0.29800
H251        H  0.40595560  0.16115523  0.84418582     0.17900
H252        H  0.41186597  0.30699891  0.83346928     0.17900
H253        H  0.24711535  0.14108187  0.73629104     0.18000
H254        H  0.38228821  0.28681797  0.70337850     0.17900
C255        C  0.12809160  0.07333915  0.51436290     0.78200
Tb256      Tb  0.46766104  0.01369078  0.52461490     1.80700
O257        O  0.12114785  0.05071132  0.54612753    -0.49800
O258        O  0.09094721  0.48589071  0.55988683    -0.57300
C259        C  0.05173028  0.09336398  0.54277098     0.94000
O260        O  0.45508618  0.05402350  0.06915445    -0.56800
Tb261      Tb  0.05162095  0.01246051  0.53610965     1.78100
O262        O  0.40732372  0.48662660  0.48417953    -0.57300
O263        O  0.49906938  0.45259794  0.56441831    -0.76100
O264        O  0.05797386  0.07083334  0.56725684    -0.75400
O265        O  0.03347197  0.00980783  0.95709461    -0.60700
C266        C  0.46768075  0.43023309  0.54212660     0.93600
O267        O  0.48194705  0.01233656  0.60394693    -0.72600
C268        C  0.38634779  0.95749647  0.50838841     0.77100
C269        C  0.07488465  0.45451766  0.53554460     0.78000
O270        O  0.09717086  0.06713219  0.99388683    -0.57900
O271        O  0.04689050  0.45130102  0.51165106    -0.49800
O272        O  0.48266065  0.01809582  0.94947313    -0.75900
O273        O  0.03934659  0.01574374  0.61185627    -0.59900
C274        C  0.01000657  0.01410781  0.62967769     0.91800
C275        C  0.00870959  0.01413095  0.93149863     0.93100
C276        C  0.44181019  0.06782143  0.04073803     0.77400
O277        O  0.40545707  0.95578581  0.54044323    -0.49200
O278        O  0.44249512  0.55595924  0.00476077    -0.50400
O279        O  0.45773368  0.44714171  0.51375583    -0.63200
O280        O  0.02682503  0.07633241  0.51207957    -0.64300
C281        C  0.13235735  0.07104953  0.80259672     0.78200
Tb282      Tb  0.46721950  0.01624807  0.77502650     1.80700
O283        O  0.11141354  0.04193562  0.82683257    -0.49800
O284        O  0.07628808  0.47275515  0.80644962    -0.57300
C285        C  0.05114668  0.09842131  0.76918910     0.94000
O286        O  0.47207690  0.07746697  0.79948032    -0.56800
Tb287      Tb  0.05103479  0.01492566  0.78653844     1.78100
O288        O  0.39769530  0.47805959  0.76500840    -0.57300
O289        O  0.49191590  0.45226181  0.79914864    -0.76100
O290        O  0.06098955  0.08146482  0.79760369    -0.75400
O291        O  0.03675199  0.01624409  0.70719554    -0.60700
C292        C  0.46694933  0.43520486  0.76851089     0.93600
O293        O  0.48532296  0.01892781  0.85405854    -0.72600
C294        C  0.39073421  0.95550478  0.79683333     0.77100
C295        C  0.07700041  0.46089211  0.77048200     0.78000
O296        O  0.11320942  0.07279967  0.77059597    -0.57900
O297        O  0.06364695  0.47459577  0.74204726    -0.49800
O298        O  0.47938382  0.01288527  0.69927283    -0.75900
O299        O  0.03608299  0.01056474  0.86168945    -0.59900
C300        C  0.01006125  0.01457462  0.87966220     0.91800
C301        C  0.00870497  0.01448621  0.68145579     0.93100
C302        C  0.44413053  0.07432256  0.77556213     0.77400
O303        O  0.42164299  0.96173239  0.81735286    -0.49200
O304        O  0.42804221  0.54296968  0.75119227    -0.50400
O305        O  0.46070050  0.45772492  0.74400821    -0.63200
O306        O  0.01987284  0.07604988  0.74673966    -0.64300
C307        C  0.15736113  0.31830416  0.48780274     0.31800
C308        C  0.17944037  0.33411184  0.56895484     0.31800
C309        C  0.14224334  0.34293538  0.50901268    -0.04400
C310        C  0.14340509  0.27990333  0.51453632    -0.05200
C311        C  0.20255152  0.34531778  0.49859042    -0.05100
C312        C  0.15305116  0.35038456  0.55139785    -0.04400
C313        C  0.15409535  0.28728473  0.55649499    -0.05200
C314        C  0.21328612  0.35254371  0.54043420    -0.05100
C315        C  0.13730253  0.37247039  0.56571259    -0.30500
N316        N  0.11919683  0.38013807  0.53280958     0.16000
C317        C  0.12258486  0.36323288  0.49796558    -0.30500
H318        H  0.11288368  0.36747571  0.96709717     0.18000
C319        C  0.13604697  0.24833541  0.57507036    -0.29500
N320        N  0.11610351  0.21875018  0.54456169     0.14700
C321        C  0.12023463  0.23753462  0.50751011    -0.29500
C322        C  0.25389605  0.37615919  0.54561087    -0.29700
N323        N  0.26824759  0.38379364  0.50747550     0.15300
H324        H  0.27173091  0.38731771  0.57479806     0.17900
C325        C  0.23749172  0.36555887  0.47816275    -0.29800
H326        H  0.24045087  0.36718457  0.94483974     0.17900
H327        H  0.10674547  0.22149975  0.97789173     0.17900
H328        H  0.13917945  0.38290567  0.59732380     0.18000
H329        H  0.13647530  0.24175682  0.60795568     0.17900
C330        C  0.17978965  0.33896067  0.73786585     0.31800
C331        C  0.16430271  0.32829612  0.81810420     0.31800
C332        C  0.15852714  0.36036975  0.75255662    -0.04400
C333        C  0.15199089  0.29292774  0.75047604    -0.05200
C334        C  0.21589157  0.35531892  0.76830166    -0.05100
C335        C  0.15121489  0.35544944  0.79454275    -0.04400
C336        C  0.14456129  0.28817951  0.79192083    -0.05200
C337        C  0.20874491  0.35061156  0.80981424    -0.05100
C338        C  0.13344704  0.37730627  0.80285466    -0.30500
N339        N  0.12781141  0.39306017  0.76671905     0.16000
C340        C  0.14262851  0.38289050  0.73561924    -0.30500
H341        H  0.14114533  0.39075845  0.70327116     0.18000
C342        C  0.12126926  0.24610441  0.79983147    -0.29500
N343        N  0.11413974  0.22478333  0.76391524     0.14700
C344        C  0.13231264  0.25269360  0.73313645    -0.29500
C345        C  0.24564556  0.36829864  0.83170053    -0.29700
N346        N  0.27386103  0.38247044  0.80345146     0.15300
H347        H  0.25155026  0.37106776  0.86520689     0.17900
C348        C  0.25596508  0.37481890  0.76477843    -0.29800
H349        H  0.27119739  0.38351794  0.73613166     0.17900
H350        H  0.13174975  0.24423142  0.70106197     0.17900
H351        H  0.12532535  0.38199106  0.83271587     0.18000
H352        H  0.11092187  0.23190610  0.82968656     0.17900
C353        C  0.16855589  0.29240706  0.92487215    -0.11600
C354        C  0.14668308  0.30592367  0.94384457     0.10600
C355        C  0.11862274  0.31042339  0.92013354    -0.11600
C356        C  0.12262439  0.31591725  0.87791841    -0.11600
C357        C  0.15486867  0.31726630  0.86130250     0.10600
C358        C  0.17362080  0.29931532  0.88330953    -0.11600
H359        H  0.18630095  0.28280143  0.94291659     0.14500
H360        H  0.09468020  0.31046014  0.93377871     0.14500
H361        H  0.10102082  0.31916999  0.85901926     0.14500
H362        H  0.19371500  0.29292681  0.86897740     0.14500
C363        C  0.20233963  0.31712854  0.63559020    -0.11600
C364        C  0.19507868  0.34439586  0.61238496     0.10600
C365        C  0.20241253  0.38117211  0.63111718    -0.11600
C366        C  0.20066603  0.38162321  0.67362040    -0.11600
C367        C  0.19244019  0.34557599  0.69536656     0.10600
C368        C  0.20091133  0.31767829  0.67801118    -0.11600
H369        H  0.20498563  0.29316076  0.62107000     0.14500
H370        H  0.20564348  0.40726928  0.61301951     0.14500
H371        H  0.20350843  0.40854085  0.68864652     0.14500
H372        H  0.20279554  0.29431678  0.69644370     0.14500
C373        C  0.09298284  0.18082925  0.76122965    -0.11500
C374        C  0.07437230  0.14305018  0.76341607    -0.13100
C375        C  0.31533775  0.40487022  0.81052392    -0.11500
C376        C  0.35091720  0.42639199  0.80846137    -0.13100
C377        C  0.10900373  0.41574001  0.76289262    -0.11500
C378        C  0.09317439  0.43555224  0.76331894    -0.13100
C379        C  0.09384727  0.17536884  0.54916941    -0.11500
C380        C  0.07428823  0.13776214  0.54832334    -0.13100
C381        C  0.34434818  0.42993482  0.50122875    -0.11500
C382        C  0.30877046  0.40797541  0.50101310    -0.13100
C383        C  0.08824481  0.42597278  0.53460458    -0.11500
C384        C  0.10197682  0.40421207  0.53397064    -0.13100
C385        C  0.43081023  0.10288962  0.77654801    -0.11500
C386        C  0.41705024  0.12461421  0.77725151    -0.13100
C387        C  0.42481594  0.35318207  0.76220291    -0.11500
C388        C  0.44436786  0.39079300  0.76301789    -0.13100
C389        C  0.17436081  0.09854748  0.80969344    -0.11500
C390        C  0.20994198  0.12042976  0.80997188    -0.13100
C391        C  0.42576591  0.09328160  0.04792904    -0.11500
C392        C  0.41001277  0.11317041  0.04837792    -0.13100
C393        C  0.42575222  0.34785474  0.55021604    -0.11500
C394        C  0.44441771  0.38562908  0.54801212    -0.13100
C395        C  0.16790340  0.10248237  0.50273650    -0.11500
C396        C  0.20348488  0.12397479  0.50067681    -0.13100
C397        C  0.39623484  0.21290804  0.93338675    -0.11600
C398        C  0.36398958  0.21154209  0.95001354     0.10600
C399        C  0.34514497  0.22936936  0.92796713    -0.11600
C400        C  0.35005391  0.23605393  0.88636309    -0.11600
C401        C  0.37195326  0.22254496  0.86742965     0.10600
C402        C  0.40011787  0.21821656  0.89114472    -0.11600
H403        H  0.41790924  0.20977951  0.95229437     0.14500
H404        H  0.32505546  0.23576890  0.94229349     0.14500
H405        H  0.33222858  0.24554270  0.86829332     0.14500
H406        H  0.42405499  0.21817632  0.87749132     0.14500
C407        C  0.31815737  0.14697286  0.63761305    -0.11600
C408        C  0.32629700  0.18300242  0.61588807     0.10600
C409        C  0.31778241  0.21084790  0.63327899    -0.11600
C410        C  0.31642466  0.21140277  0.67570534    -0.11600
C411        C  0.32379334  0.18419076  0.69886947     0.10600
C412        C  0.31648773  0.14743068  0.68012472    -0.11600
H413        H  0.31534750  0.12008170  0.62256363     0.14500
H414        H  0.31583761  0.23418604  0.61486881     0.14500
H415        H  0.31374501  0.23533616  0.69025318     0.14500
H416        H  0.31332949  0.12135599  0.69820877     0.14500
C417        C  0.33898080  0.68969111  0.07340763     0.31800
C418        C  0.35453554  0.70047076  0.49319584     0.31800
C419        C  0.30289650  0.67331269  0.04295014    -0.04400
C420        C  0.36672871  0.73574911  0.06084577    -0.05200
C421        C  0.36033207  0.66837928  0.05871784    -0.05100
C422        C  0.31007462  0.67807345  0.50144730    -0.04400
C423        C  0.37419141  0.74055312  0.51940920    -0.05200
C424        C  0.36768532  0.67336220  0.51674502    -0.05100
C425        C  0.27318822  0.66046299  0.47953988    -0.30500
N426        N  0.24495740  0.64629653  0.50777041     0.16000
C427        C  0.26282615  0.65387267  0.04645055    -0.30500
H428        H  0.24757855  0.64519368  0.07508686     0.18000
C429        C  0.39746266  0.78263344  0.51154288    -0.29500
N430        N  0.40454990  0.80390656  0.04747995     0.14700
C431        C  0.38636506  0.77596118  0.07822835    -0.29500
C432        C  0.38556963  0.65162067  0.50844096    -0.29700
N433        N  0.39122505  0.63587263  0.54457012     0.15300
H434        H  0.39373822  0.64698884  0.47858445     0.17900
C435        C  0.37631232  0.64593542  0.07565844    -0.29800
H436        H  0.37777229  0.63803438  0.10799804     0.17900
H437        H  0.38691270  0.78438356  0.11031387     0.17900
H438        H  0.26730410  0.65777262  0.44603035     0.18000
H439        H  0.40784806  0.79686723  0.48170912     0.17900
C440        C  0.36133769  0.71018919  0.32347253     0.31800
C441        C  0.33938298  0.69444959  0.24230295     0.31800
C442        C  0.31616325  0.68309398  0.31262473    -0.04400
C443        C  0.37525370  0.74861400  0.29677897    -0.05200
C444        C  0.37657406  0.68566793  0.30226696    -0.05100
C445        C  0.30549768  0.67588839  0.27076834    -0.04400
C446        C  0.36462034  0.74126353  0.25481268    -0.05200
C447        C  0.36583076  0.67826549  0.25986789    -0.05100
C448        C  0.26489939  0.65221503  0.26551048    -0.30500
N449        N  0.25048150  0.64454901  0.30360911     0.16000
C450        C  0.28118375  0.66280934  0.33298171    -0.30500
H451        H  0.27816139  0.66120624  0.36629346     0.18000
C452        C  0.38266876  0.78022441  0.23626425    -0.29500
N453        N  0.40256097  0.80979463  0.26679551     0.14700
C454        C  0.39839855  0.79098324  0.30383755    -0.29500
C455        C  0.38166361  0.65627652  0.24554216    -0.29700
N456        N  0.39976130  0.64861175  0.27844990     0.15300
H457        H  0.37984416  0.64589825  0.21392083     0.17900
C458        C  0.39628074  0.66542166  0.31331253    -0.29800
H459        H  0.40595552  0.66115512  0.34418588     0.17900
H460        H  0.41186588  0.80699888  0.33346909     0.17900
H461        H  0.24711538  0.64108173  0.23629118     0.18000
H462        H  0.38228802  0.78681799  0.20337823     0.17900
C463        C  0.12809152  0.57333909  0.01436285     0.78200
Tb464      Tb  0.46766096  0.51369066  0.02461484     1.80700
O465        O  0.12114773  0.55071121  0.04612745    -0.49800
O466        O  0.09094716  0.98589054  0.05988663    -0.57300
C467        C  0.05173013  0.59336391  0.04277113     0.94000
O468        O  0.45508634  0.55402355  0.56915461    -0.56800
Tb469      Tb  0.05162086  0.51246050  0.03610963     1.78100
O470        O  0.40732367  0.98662646  0.98417944    -0.57300
O471        O  0.49906932  0.95259789  0.06441834    -0.76100
O472        O  0.05797391  0.57083334  0.06725687    -0.75400
O473        O  0.03347200  0.50980792  0.45709459    -0.60700
C474        C  0.46768066  0.93023311  0.04212669     0.93600
O475        O  0.48194715  0.51233664  0.10394687    -0.72600
C476        C  0.38634774  0.45749640  0.00838843     0.77100
C477        C  0.07488458  0.95451750  0.03554437     0.78000
O478        O  0.09717081  0.56713216  0.49388681    -0.57900
O479        O  0.04689043  0.95130091  0.01165085    -0.49800
O480        O  0.48266078  0.51809587  0.44947316    -0.75900
O481        O  0.03934658  0.51574358  0.11185630    -0.59900
C482        C  0.01000657  0.51410776  0.12967767     0.91800
C483        C  0.00870961  0.51413101  0.43149860     0.93100
C484        C  0.44181034  0.56782150  0.54073822     0.77400
O485        O  0.40545701  0.45578572  0.04044325    -0.49200
O486        O  0.44249511  0.05595924  0.50476094    -0.50400
O487        O  0.45773362  0.94714176  0.01375591    -0.63200
O488        O  0.02682489  0.57633232  0.01207970    -0.64300
C489        C  0.13235734  0.57104953  0.30259659     0.78200
Tb490      Tb  0.46721947  0.51624802  0.27502648     1.80700
O491        O  0.11141355  0.54193555  0.32683240    -0.49800
O492        O  0.07628812  0.97275514  0.30644956    -0.57300
C493        C  0.05114656  0.59842126  0.26918899     0.94000
O494        O  0.47207689  0.57746700  0.29948015    -0.56800
Tb495      Tb  0.05103477  0.51492566  0.28653834     1.78100
O496        O  0.39769526  0.97805970  0.26500850    -0.57300
O497        O  0.49191588  0.95226181  0.29914856    -0.76100
O498        O  0.06098943  0.58146475  0.29760355    -0.75400
O499        O  0.03675199  0.51624403  0.20719547    -0.60700
C500        C  0.46694924  0.93520485  0.26851088     0.93600
O501        O  0.48532291  0.51892770  0.35405851    -0.72600
C502        C  0.39073421  0.45550478  0.29683342     0.77100
C503        C  0.07700041  0.96089204  0.27048196     0.78000
O504        O  0.11320940  0.57279970  0.27059586    -0.57900
O505        O  0.06364685  0.97459558  0.24204721    -0.49800
O506        O  0.47938379  0.51288518  0.19927281    -0.75900
O507        O  0.03608304  0.51056488  0.36168934    -0.59900
C508        C  0.01006122  0.51457465  0.37966213     0.91800
C509        C  0.00870498  0.51448613  0.18145579     0.93100
C510        C  0.44413052  0.57432258  0.27556197     0.77400
O511        O  0.42164299  0.46173244  0.31735297    -0.49200
O512        O  0.42804211  0.04296949  0.25119230    -0.50400
O513        O  0.46070033  0.95772488  0.24400824    -0.63200
O514        O  0.01987265  0.57604987  0.24673961    -0.64300
C515        C  0.15736107  0.81830400  0.98780272     0.31800
C516        C  0.17944027  0.83411170  0.06895482     0.31800
C517        C  0.14224330  0.84293527  0.00901259    -0.04400
C518        C  0.14340498  0.77990317  0.01453634    -0.05200
C519        C  0.20255147  0.84531759  0.99859044    -0.05100
C520        C  0.15305109  0.85038443  0.05139776    -0.04400
C521        C  0.15409524  0.78728459  0.05649501    -0.05200
C522        C  0.21328604  0.85254355  0.04043422    -0.05100
C523        C  0.13730248  0.87247026  0.06571251    -0.30500
N524        N  0.11919675  0.88013793  0.03280948     0.16000
C525        C  0.12258481  0.86323276  0.99796548    -0.30500
H526        H  0.11288368  0.86747563  0.46709737     0.18000
C527        C  0.13604695  0.74833529  0.07507039    -0.29500
N528        N  0.11610352  0.71875004  0.04456176     0.14700
C529        C  0.12023453  0.73753446  0.00751016    -0.29500
C530        C  0.25389598  0.87615913  0.04561094    -0.29700
N531        N  0.26824753  0.88379360  0.00747554     0.15300
H532        H  0.27173078  0.88731760  0.07479806     0.17900
C533        C  0.23749170  0.86555876  0.97816282    -0.29800
H534        H  0.24045091  0.86718466  0.44483970     0.17900
H535        H  0.10674545  0.72149969  0.47789164     0.17900
H536        H  0.13917937  0.88290547  0.09732365     0.18000
H537        H  0.13647529  0.74175669  0.10795578     0.17900
C538        C  0.17978961  0.83896059  0.23786586     0.31800
C539        C  0.16430265  0.82829609  0.31810421     0.31800
C540        C  0.15852704  0.86036960  0.25255657    -0.04400
C541        C  0.15199088  0.79292767  0.25047610    -0.05200
C542        C  0.21589156  0.85531891  0.26830163    -0.05100
C543        C  0.15121477  0.85544929  0.29454268    -0.04400
C544        C  0.14456125  0.78817945  0.29192090    -0.05200
C545        C  0.20874488  0.85061157  0.30981420    -0.05100
C546        C  0.13344691  0.87730612  0.30285457    -0.30500
N547        N  0.12781129  0.89305998  0.26671895     0.16000
C548        C  0.14262843  0.88289036  0.23561913    -0.30500
H549        H  0.14114533  0.89075836  0.20327112     0.18000
C550        C  0.12126911  0.74610439  0.29983151    -0.29500
N551        N  0.11413955  0.72478326  0.26391530     0.14700
C552        C  0.13231253  0.75269355  0.23313652    -0.29500
C553        C  0.24564556  0.86829856  0.33170055    -0.29700
N554        N  0.27386100  0.88247029  0.30345134     0.15300
H555        H  0.25155026  0.87106769  0.36520657     0.17900
C556        C  0.25596506  0.87481877  0.26477842    -0.29800
H557        H  0.27119747  0.88351784  0.23613150     0.17900
H558        H  0.13174955  0.74423131  0.20106201     0.17900
H559        H  0.12532532  0.88199101  0.33271578     0.18000
H560        H  0.11092164  0.73190602  0.32968668     0.17900
C561        C  0.16855595  0.79240716  0.42487215    -0.11600
C562        C  0.14668298  0.80592361  0.44384457     0.10600
C563        C  0.11862261  0.81042323  0.42013355    -0.11600
C564        C  0.12262422  0.81591713  0.37791843    -0.11600
C565        C  0.15486857  0.81726627  0.36130250     0.10600
C566        C  0.17362079  0.79931543  0.38330953    -0.11600
H567        H  0.18630104  0.78280168  0.44291653     0.14500
H568        H  0.09467998  0.81046003  0.43377882     0.14500
H569        H  0.10102071  0.81916995  0.35901933     0.14500
H570        H  0.19371513  0.79292699  0.36897734     0.14500
C571        C  0.20233954  0.81712847  0.13559023    -0.11600
C572        C  0.19507852  0.84439571  0.11238497     0.10600
C573        C  0.20241233  0.88117198  0.13111712    -0.11600
C574        C  0.20066583  0.88162310  0.17362040    -0.11600
C575        C  0.19244009  0.84557590  0.19536656     0.10600
C576        C  0.20091120  0.81767819  0.17801122    -0.11600
H577        H  0.20498562  0.79316069  0.12107008     0.14500
H578        H  0.20564327  0.90726901  0.11301952     0.14500
H579        H  0.20350825  0.90854067  0.18864638     0.14500
H580        H  0.20279539  0.79431674  0.19644369     0.14500
C581        C  0.09298274  0.68082923  0.26122970    -0.11500
C582        C  0.07437222  0.64305011  0.26341602    -0.13100
C583        C  0.31533770  0.90487029  0.31052393    -0.11500
C584        C  0.35091713  0.92639212  0.30846142    -0.13100
C585        C  0.10900368  0.91573990  0.26289255    -0.11500
C586        C  0.09317441  0.93555219  0.26331891    -0.13100
C587        C  0.09384724  0.67536872  0.04916953    -0.11500
C588        C  0.07428805  0.63776204  0.04832351    -0.13100
C589        C  0.34434817  0.92993463  0.00122880    -0.11500
C590        C  0.30877045  0.90797528  0.00101318    -0.13100
C591        C  0.08824470  0.92597261  0.03460439    -0.11500
C592        C  0.10197672  0.90421187  0.03397058    -0.13100
C593        C  0.43081028  0.60288968  0.27654783    -0.11500
C594        C  0.41705029  0.62461430  0.27725145    -0.13100
C595        C  0.42481583  0.85318208  0.26220287    -0.11500
C596        C  0.44436773  0.89079300  0.26301794    -0.13100
C597        C  0.17436078  0.59854756  0.30969339    -0.11500
C598        C  0.20994197  0.62042984  0.30997193    -0.13100
C599        C  0.42576618  0.59328182  0.54792921    -0.11500
C600        C  0.41001299  0.61317059  0.54837802    -0.13100
C601        C  0.42575217  0.84785477  0.05021599    -0.11500
C602        C  0.44441757  0.88562910  0.04801217    -0.13100
C603        C  0.16790335  0.60248230  0.00273654    -0.11500
C604        C  0.20348483  0.62397468  0.00067679    -0.13100
C605        C  0.39623482  0.71290786  0.43338674    -0.11600
C606        C  0.36398954  0.71154205  0.45001350     0.10600
C607        C  0.34514497  0.72936924  0.42796709    -0.11600
C608        C  0.35005385  0.73605381  0.38636304    -0.11600
C609        C  0.37195326  0.72254485  0.36742961     0.10600
C610        C  0.40011781  0.71821642  0.39114464    -0.11600
H611        H  0.41790900  0.70977943  0.45229413     0.14500
H612        H  0.32505540  0.73576890  0.44229349     0.14500
H613        H  0.33222868  0.74554259  0.36829336     0.14500
H614        H  0.42405496  0.71817623  0.37749132     0.14500
C615        C  0.31815720  0.64697278  0.13761312    -0.11600
C616        C  0.32629686  0.68300230  0.11588809     0.10600
C617        C  0.31778235  0.71084789  0.13327899    -0.11600
C618        C  0.31642459  0.71140273  0.17570533    -0.11600
C619        C  0.32379324  0.68419077  0.19886948     0.10600
C620        C  0.31648756  0.64743061  0.18012479    -0.11600
H621        H  0.31534741  0.62008154  0.12256375     0.14500
H622        H  0.31583761  0.73418594  0.11486885     0.14500
H623        H  0.31374494  0.73533628  0.19025321     0.14500
H624        H  0.31332937  0.62135603  0.19820888     0.14500
C625        C  0.33898080  0.68969113  0.57340763     0.31800
C626        C  0.35453554  0.70047078  0.99319583     0.31800
C627        C  0.30289650  0.67331272  0.54295013    -0.04400
C628        C  0.36672871  0.73574912  0.56084578    -0.05200
C629        C  0.36033205  0.66837927  0.55871782    -0.05100
C630        C  0.31007461  0.67807340  0.00144732    -0.04400
C631        C  0.37419139  0.74055311  0.01940920    -0.05200
C632        C  0.36768539  0.67336230  0.01674504    -0.05100
C633        C  0.27318821  0.66046288  0.97953979    -0.30500
N634        N  0.24495740  0.64629645  0.00777047     0.16000
C635        C  0.26282613  0.65387271  0.54645058    -0.30500
H636        H  0.24757860  0.64519372  0.57508676     0.18000
C637        C  0.39746269  0.78263344  0.01154280    -0.29500
N638        N  0.40454986  0.80390658  0.54747995     0.14700
C639        C  0.38636501  0.77596119  0.57822840    -0.29500
C640        C  0.38556976  0.65162084  0.00844092    -0.29700
N641        N  0.39122508  0.63587268  0.04457014     0.15300
H642        H  0.39373832  0.64698905  0.97858453     0.17900
C643        C  0.37631235  0.64593544  0.57565853    -0.29800
H644        H  0.37777236  0.63803454  0.60799787     0.17900
H645        H  0.38691264  0.78438356  0.61031385     0.17900
H646        H  0.26730411  0.65777250  0.94603059     0.18000
H647        H  0.40784802  0.79686714  0.98170920     0.17900
C648        C  0.36133766  0.71018920  0.82347259     0.31800
C649        C  0.33938301  0.69444965  0.74230297     0.31800
C650        C  0.31616324  0.68309409  0.81262471    -0.04400
C651        C  0.37525376  0.74861404  0.79677907    -0.05200
C652        C  0.37657397  0.68566786  0.80226703    -0.05100
C653        C  0.30549768  0.67588854  0.77076831    -0.04400
C654        C  0.36462044  0.74126357  0.75481277    -0.05200
C655        C  0.36583066  0.67826542  0.75986796    -0.05100
C656        C  0.26489942  0.65221515  0.76551046    -0.30500
N657        N  0.25048151  0.64454904  0.80360900     0.16000
C658        C  0.28118373  0.66280938  0.83298172    -0.30500
H659        H  0.27816135  0.66120621  0.86629327     0.18000
C660        C  0.38266888  0.78022446  0.73626430    -0.29500
N661        N  0.40256104  0.80979468  0.76679570     0.14700
C662        C  0.39839862  0.79098325  0.80383761    -0.29500
C663        C  0.38166355  0.65627652  0.74554225    -0.29700
N664        N  0.39976128  0.64861177  0.77844987     0.15300
H665        H  0.37984412  0.64589829  0.71392068     0.17900
C666        C  0.39628077  0.66542167  0.81331258    -0.29800
H667        H  0.40595562  0.66115524  0.84418580     0.17900
H668        H  0.41186607  0.80699897  0.83346940     0.17900
H669        H  0.24711534  0.64108174  0.73629099     0.18000
H670        H  0.38228825  0.78681802  0.70337852     0.17900
C671        C  0.12809152  0.57333922  0.51436288     0.78200
Tb672      Tb  0.46766104  0.51369069  0.52461491     1.80700
O673        O  0.12114780  0.55071147  0.54612758    -0.49800
O674        O  0.09094717  0.98589057  0.55988681    -0.57300
C675        C  0.05173021  0.59336392  0.54277116     0.94000
O676        O  0.45508616  0.55402346  0.06915445    -0.56800
Tb677      Tb  0.05162092  0.51246054  0.53610967     1.78100
O678        O  0.40732365  0.98662658  0.48417953    -0.57300
O679        O  0.49906945  0.95259796  0.56441840    -0.76100
O680        O  0.05797394  0.57083335  0.56725694    -0.75400
O681        O  0.03347198  0.50980791  0.95709460    -0.60700
C682        C  0.46768082  0.93023316  0.54212668     0.93600
O683        O  0.48194715  0.51233666  0.60394694    -0.72600
C684        C  0.38634779  0.45749652  0.50838840     0.77100
C685        C  0.07488461  0.95451754  0.53554453     0.78000
O686        O  0.09717083  0.56713215  0.99388681    -0.57900
O687        O  0.04689044  0.95130093  0.51165104    -0.49800
O688        O  0.48266071  0.51809587  0.94947313    -0.75900
O689        O  0.03934656  0.51574362  0.61185629    -0.59900
C690        C  0.01000656  0.51410780  0.62967769     0.91800
C691        C  0.00870961  0.51413100  0.93149863     0.93100
C692        C  0.44181024  0.56782147  0.04073803     0.77400
O693        O  0.40545702  0.45578575  0.54044322    -0.49200
O694        O  0.44249514  0.05595926  0.00476076    -0.50400
O695        O  0.45773374  0.94714183  0.51375596    -0.63200
O696        O  0.02682495  0.57633231  0.51207974    -0.64300
C697        C  0.13235737  0.57104955  0.80259663     0.78200
Tb698      Tb  0.46721951  0.51624806  0.77502649     1.80700
O699        O  0.11141359  0.54193570  0.82683255    -0.49800
O700        O  0.07628809  0.97275512  0.80644961    -0.57300
C701        C  0.05114668  0.59842132  0.76918909     0.94000
O702        O  0.47207697  0.57746706  0.79948019    -0.56800
Tb703      Tb  0.05103480  0.51492570  0.78653845     1.78100
O704        O  0.39769529  0.97805974  0.76500847    -0.57300
O705        O  0.49191592  0.95226184  0.79914866    -0.76100
O706        O  0.06098957  0.58146484  0.79760366    -0.75400
O707        O  0.03675197  0.51624406  0.70719554    -0.60700
C708        C  0.46694938  0.93520490  0.76851088     0.93600
O709        O  0.48532292  0.51892766  0.85405854    -0.72600
C710        C  0.39073424  0.45550474  0.79683335     0.77100
C711        C  0.07700045  0.96089207  0.77048201     0.78000
O712        O  0.11320944  0.57279960  0.77059584    -0.57900
O713        O  0.06364697  0.97459571  0.74204726    -0.49800
O714        O  0.47938384  0.51288522  0.69927283    -0.75900
O715        O  0.03608304  0.51056486  0.86168945    -0.59900
C716        C  0.01006119  0.51457462  0.87966220     0.91800
C717        C  0.00870498  0.51448617  0.68145580     0.93100
C718        C  0.44413058  0.57432263  0.77556205     0.77400
O719        O  0.42164304  0.46173251  0.81735297    -0.49200
O720        O  0.42804223  0.04296968  0.75119227    -0.50400
O721        O  0.46070052  0.95772495  0.74400822    -0.63200
O722        O  0.01987278  0.57604992  0.74673972    -0.64300
C723        C  0.15736109  0.81830409  0.48780269     0.31800
C724        C  0.17944034  0.83411177  0.56895479     0.31800
C725        C  0.14224333  0.84293532  0.50901264    -0.04400
C726        C  0.14340503  0.77990324  0.51453630    -0.05200
C727        C  0.20255151  0.84531773  0.49859038    -0.05100
C728        C  0.15305113  0.85038449  0.55139781    -0.04400
C729        C  0.15409533  0.78728465  0.55649496    -0.05200
C730        C  0.21328609  0.85254362  0.54043416    -0.05100
C731        C  0.13730247  0.87247027  0.56571249    -0.30500
N732        N  0.11919676  0.88013795  0.53280960     0.16000
C733        C  0.12258483  0.86323280  0.49796547    -0.30500
H734        H  0.11288350  0.86747554  0.96709712     0.18000
C735        C  0.13604700  0.74833534  0.57507033    -0.29500
N736        N  0.11610348  0.71875010  0.54456169     0.14700
C737        C  0.12023451  0.73753454  0.50751013    -0.29500
C738        C  0.25389603  0.87615918  0.54561090    -0.29700
N739        N  0.26824757  0.88379369  0.50747551     0.15300
H740        H  0.27173081  0.88731762  0.57479802     0.17900
C741        C  0.23749174  0.86555895  0.47816274    -0.29800
H742        H  0.24045084  0.86718441  0.94483970     0.17900
H743        H  0.10674548  0.72149962  0.97789174     0.17900
H744        H  0.13917937  0.88290557  0.59732390     0.18000
H745        H  0.13647535  0.74175673  0.60795569     0.17900
C746        C  0.17978961  0.83896061  0.73786584     0.31800
C747        C  0.16430265  0.82829603  0.81810419     0.31800
C748        C  0.15852707  0.86036964  0.75255661    -0.04400
C749        C  0.15199088  0.79292768  0.75047603    -0.05200
C750        C  0.21589154  0.85531887  0.76830161    -0.05100
C751        C  0.15121483  0.85544932  0.79454274    -0.04400
C752        C  0.14456119  0.78817944  0.79192082    -0.05200
C753        C  0.20874487  0.85061146  0.80981420    -0.05100
C754        C  0.13344702  0.87730615  0.80285470    -0.30500
N755        N  0.12781137  0.89306006  0.76671913     0.16000
C756        C  0.14262845  0.88289042  0.73561926    -0.30500
H757        H  0.14114530  0.89075843  0.70327128     0.18000
C758        C  0.12126910  0.74610437  0.79983142    -0.29500
N759        N  0.11413972  0.72478327  0.76391524     0.14700
C760        C  0.13231269  0.75269357  0.73313646    -0.29500
C761        C  0.24564553  0.86829853  0.83170049    -0.29700
N762        N  0.27386100  0.88247035  0.80345137     0.15300
H763        H  0.25155025  0.87106772  0.86520679     0.17900
C764        C  0.25596503  0.87481879  0.76477843    -0.29800
H765        H  0.27119745  0.88351789  0.73613145     0.17900
H766        H  0.13174983  0.74423135  0.70106198     0.17900
H767        H  0.12532540  0.88199097  0.83271595     0.18000
H768        H  0.11092158  0.73190598  0.82968657     0.17900
C769        C  0.16855586  0.79240699  0.92487213    -0.11600
C770        C  0.14668304  0.80592354  0.94384458     0.10600
C771        C  0.11862266  0.81042325  0.92013356    -0.11600
C772        C  0.12262431  0.81591712  0.87791845    -0.11600
C773        C  0.15486854  0.81726617  0.86130248     0.10600
C774        C  0.17362072  0.79931521  0.88330951    -0.11600
H775        H  0.18630102  0.78280139  0.94291657     0.14500
H776        H  0.09468017  0.81046000  0.93377877     0.14500
H777        H  0.10102064  0.81916992  0.85901928     0.14500
H778        H  0.19371495  0.79292675  0.86897734     0.14500
C779        C  0.20233962  0.81712859  0.63559019    -0.11600
C780        C  0.19507861  0.84439580  0.61238492     0.10600
C781        C  0.20241233  0.88117205  0.63111709    -0.11600
C782        C  0.20066578  0.88162312  0.67362036    -0.11600
C783        C  0.19244010  0.84557594  0.69536652     0.10600
C784        C  0.20091130  0.81767830  0.67801115    -0.11600
H785        H  0.20498569  0.79316074  0.62106994     0.14500
H786        H  0.20564327  0.90726908  0.61301952     0.14500
H787        H  0.20350816  0.90854067  0.68864637     0.14500
H788        H  0.20279557  0.79431684  0.69644369     0.14500
C789        C  0.09298290  0.68082925  0.76122965    -0.11500
C790        C  0.07437232  0.64305015  0.76341605    -0.13100
C791        C  0.31533772  0.90487035  0.81052390    -0.11500
C792        C  0.35091716  0.92639214  0.80846139    -0.13100
C793        C  0.10900372  0.91573991  0.76289274    -0.11500
C794        C  0.09317441  0.93555219  0.76331901    -0.13100
C795        C  0.09384728  0.67536877  0.54916947    -0.11500
C796        C  0.07428817  0.63776207  0.54832346    -0.13100
C797        C  0.34434819  0.92993465  0.50122880    -0.11500
C798        C  0.30877047  0.90797534  0.50101316    -0.13100
C799        C  0.08824475  0.92597266  0.53460444    -0.11500
C800        C  0.10197672  0.90421190  0.53397056    -0.13100
C801        C  0.43081033  0.60288975  0.77654790    -0.11500
C802        C  0.41705032  0.62461433  0.77725145    -0.13100
C803        C  0.42481590  0.85318212  0.76220294    -0.11500
C804        C  0.44436788  0.89079304  0.76301792    -0.13100
C805        C  0.17436082  0.59854757  0.80969338    -0.11500
C806        C  0.20994198  0.62042982  0.80997187    -0.13100
C807        C  0.42576608  0.59328176  0.04792904    -0.11500
C808        C  0.41001294  0.61317058  0.04837791    -0.13100
C809        C  0.42575220  0.84785479  0.55021600    -0.11500
C810        C  0.44441773  0.88562913  0.54801213    -0.13100
C811        C  0.16790333  0.60248238  0.50273646    -0.11500
C812        C  0.20348481  0.62397472  0.50067676    -0.13100
C813        C  0.39623480  0.71290793  0.93338676    -0.11600
C814        C  0.36398951  0.71154207  0.95001353     0.10600
C815        C  0.34514490  0.72936923  0.92796708    -0.11600
C816        C  0.35005384  0.73605384  0.88636308    -0.11600
C817        C  0.37195323  0.72254487  0.86742965     0.10600
C818        C  0.40011778  0.71821645  0.89114472    -0.11600
H819        H  0.41790911  0.70977956  0.95229428     0.14500
H820        H  0.32505525  0.73576883  0.94229350     0.14500
H821        H  0.33222860  0.74554263  0.86829330     0.14500
H822        H  0.42405500  0.71817623  0.87749135     0.14500
C823        C  0.31815730  0.64697286  0.63761310    -0.11600
C824        C  0.32629687  0.68300231  0.61588805     0.10600
C825        C  0.31778231  0.71084788  0.63327896    -0.11600
C826        C  0.31642465  0.71140275  0.67570530    -0.11600
C827        C  0.32379335  0.68419086  0.69886946     0.10600
C828        C  0.31648761  0.64743064  0.68012475    -0.11600
H829        H  0.31534751  0.62008153  0.62256368     0.14500
H830        H  0.31583754  0.73418590  0.61486882     0.14500
H831        H  0.31374502  0.73533641  0.69025324     0.14500
H832        H  0.31332933  0.62135605  0.69820883     0.14500
C833        C  0.83898078  0.18969108  0.07340763     0.31800
C834        C  0.85453554  0.20047076  0.49319583     0.31800
C835        C  0.80289647  0.17331257  0.04295014    -0.04400
C836        C  0.86672866  0.23574906  0.06084574    -0.05200
C837        C  0.86033209  0.16837929  0.05871784    -0.05100
C838        C  0.81007460  0.17807337  0.50144730    -0.04400
C839        C  0.87419140  0.24055311  0.51940918    -0.05200
C840        C  0.86768538  0.17336226  0.51674501    -0.05100
C841        C  0.77318819  0.16046294  0.47953988    -0.30500
N842        N  0.74495740  0.14629655  0.50777042     0.16000
C843        C  0.76282610  0.15387257  0.04645055    -0.30500
H844        H  0.74757850  0.14519353  0.07508685     0.18000
C845        C  0.89746262  0.28263341  0.51154291    -0.29500
N846        N  0.90454986  0.30390651  0.04747994     0.14700
C847        C  0.88636501  0.27596110  0.07822835    -0.29500
C848        C  0.88556964  0.15162068  0.50844095    -0.29700
N849        N  0.89122499  0.13587258  0.54457011     0.15300
H850        H  0.89373821  0.14698886  0.47858445     0.17900
C851        C  0.87631237  0.14593545  0.07565851    -0.29800
H852        H  0.87777240  0.13803456  0.10799794     0.17900
H853        H  0.88691266  0.28438346  0.11031384     0.17900
H854        H  0.76730406  0.15777260  0.44603035     0.18000
H855        H  0.90784804  0.29686727  0.48170904     0.17900
C856        C  0.86133764  0.21018912  0.32347255     0.31800
C857        C  0.83938294  0.19444955  0.24230296     0.31800
C858        C  0.81616321  0.18309393  0.31262475    -0.04400
C859        C  0.87525367  0.24861395  0.29677902    -0.05200
C860        C  0.87657400  0.18566785  0.30226698    -0.05100
C861        C  0.80549765  0.17588839  0.27076836    -0.04400
C862        C  0.86462033  0.24126348  0.25481271    -0.05200
C863        C  0.86583069  0.17826540  0.25986792    -0.05100
C864        C  0.76489936  0.15221506  0.26551048    -0.30500
N865        N  0.75048148  0.14454889  0.30360911     0.16000
C866        C  0.78118370  0.16280921  0.33298172    -0.30500
H867        H  0.77816133  0.16120608  0.36629348     0.18000
C868        C  0.88266873  0.28022436  0.23626428    -0.29500
N869        N  0.90256093  0.30979458  0.26679558     0.14700
C870        C  0.89839849  0.29098318  0.30383753    -0.29500
C871        C  0.88166360  0.15627649  0.24554216    -0.29700
N872        N  0.89976126  0.14861168  0.27844989     0.15300
H873        H  0.87984424  0.14589833  0.21392083     0.17900
C874        C  0.89628078  0.16542164  0.31331254    -0.29800
H875        H  0.90595564  0.16115524  0.34418579     0.17900
H876        H  0.91186591  0.30699895  0.33346928     0.17900
H877        H  0.74711537  0.14108182  0.23629116     0.18000
H878        H  0.88228800  0.28681795  0.20337830     0.17900
C879        C  0.62809151  0.07333913  0.01436287     0.78200
Tb880      Tb  0.96766100  0.01369075  0.02461484     1.80700
O881        O  0.62114771  0.05071125  0.04612746    -0.49800
O882        O  0.59094718  0.48589068  0.05988662    -0.57300
C883        C  0.55173017  0.09336397  0.04277113     0.94000
O884        O  0.95508637  0.05402361  0.56915461    -0.56800
Tb885      Tb  0.55162083  0.01246046  0.03610961     1.78100
O886        O  0.90732362  0.48662638  0.98417942    -0.57300
O887        O  0.99906932  0.45259785  0.06441829    -0.76100
O888        O  0.55797386  0.07083332  0.06725685    -0.75400
O889        O  0.53347206  0.00980797  0.45709459    -0.60700
C890        C  0.96768062  0.43023304  0.04212668     0.93600
O891        O  0.98194706  0.01233653  0.10394688    -0.72600
C892        C  0.88634778  0.95749642  0.00838840     0.77100
C893        C  0.57488463  0.45451764  0.03554437     0.78000
O894        O  0.59717084  0.06713220  0.49388687    -0.57900
O895        O  0.54689046  0.45130102  0.01165085    -0.49800
O896        O  0.98266078  0.01809598  0.44947314    -0.75900
O897        O  0.53934660  0.01574370  0.11185628    -0.59900
C898        C  0.51000654  0.01410777  0.12967767     0.91800
C899        C  0.50870968  0.01413107  0.43149862     0.93100
C900        C  0.94181031  0.06782149  0.54073823     0.77400
O901        O  0.90545704  0.95578588  0.04044331    -0.49200
O902        O  0.94249514  0.55595927  0.50476094    -0.50400
O903        O  0.95773354  0.44714168  0.01375592    -0.63200
O904        O  0.52682494  0.07633244  0.01207969    -0.64300
C905        C  0.63235729  0.07104943  0.30259661     0.78200
Tb906      Tb  0.96721952  0.01624804  0.27502651     1.80700
O907        O  0.61141350  0.04193540  0.32683237    -0.49800
O908        O  0.57628814  0.47275519  0.30644957    -0.57300
C909        C  0.55114663  0.09842128  0.26918900     0.94000
O910        O  0.97207681  0.07746691  0.29948021    -0.56800
Tb911      Tb  0.55103476  0.01492560  0.28653833     1.78100
O912        O  0.89769518  0.47805961  0.26500844    -0.57300
O913        O  0.99191591  0.45226177  0.29914861    -0.76100
O914        O  0.56098959  0.08146476  0.29760347    -0.75400
O915        O  0.53675197  0.01624404  0.20719547    -0.60700
C916        C  0.96694920  0.43520482  0.26851096     0.93600
O917        O  0.98532297  0.01892780  0.35405851    -0.72600
C918        C  0.89073420  0.95550479  0.29683339     0.77100
C919        C  0.57700041  0.46089208  0.27048196     0.78000
O920        O  0.61320937  0.07279970  0.27059592    -0.57900
O921        O  0.56364687  0.47459564  0.24204721    -0.49800
O922        O  0.97938383  0.01288524  0.19927284    -0.75900
O923        O  0.53608292  0.01056470  0.36168933    -0.59900
C924        C  0.51006120  0.01457463  0.37966215     0.91800
C925        C  0.50870497  0.01448617  0.18145578     0.93100
C926        C  0.94413045  0.07432245  0.27556197     0.77400
O927        O  0.92164297  0.96173243  0.31735296    -0.49200
O928        O  0.92804211  0.54296960  0.25119234    -0.50400
O929        O  0.96070034  0.45772488  0.24400831    -0.63200
O930        O  0.51987269  0.07604991  0.24673967    -0.64300
C931        C  0.65736109  0.31830411  0.98780270     0.31800
C932        C  0.67944030  0.33411178  0.06895482     0.31800
C933        C  0.64224334  0.34293538  0.00901259    -0.04400
C934        C  0.64340501  0.27990327  0.01453633    -0.05200
C935        C  0.70255148  0.34531769  0.99859041    -0.05100
C936        C  0.65305112  0.35038453  0.05139776    -0.04400
C937        C  0.65409527  0.28728468  0.05649500    -0.05200
C938        C  0.71328603  0.35254359  0.04043417    -0.05100
C939        C  0.63730253  0.37247037  0.06571252    -0.30500
N940        N  0.61919681  0.38013807  0.03280948     0.16000
C941        C  0.62258487  0.36323289  0.99796548    -0.30500
H942        H  0.61288362  0.36747565  0.46709736     0.18000
C943        C  0.63604698  0.24833538  0.07507039    -0.29500
N944        N  0.61610355  0.21875014  0.04456175     0.14700
C945        C  0.62023456  0.23753456  0.00751016    -0.29500
C946        C  0.75389601  0.37615908  0.04561097    -0.29700
N947        N  0.76824752  0.38379353  0.00747546     0.15300
H948        H  0.77173064  0.38731742  0.07479781     0.17900
C949        C  0.73749170  0.36555882  0.97816278    -0.29800
H950        H  0.74045085  0.36718451  0.44483970     0.17900
H951        H  0.60674547  0.22149976  0.47789163     0.17900
H952        H  0.63917942  0.38290558  0.09732365     0.18000
H953        H  0.63647534  0.24175680  0.10795574     0.17900
C954        C  0.67978960  0.33896062  0.23786585     0.31800
C955        C  0.66430266  0.32829611  0.31810420     0.31800
C956        C  0.65852710  0.36036970  0.25255658    -0.04400
C957        C  0.65199084  0.29292770  0.25047609    -0.05200
C958        C  0.71589153  0.35531887  0.26830160    -0.05100
C959        C  0.65121482  0.35544938  0.29454270    -0.04400
C960        C  0.64456121  0.28817949  0.29192087    -0.05200
C961        C  0.70874488  0.35061152  0.30981417    -0.05100
C962        C  0.63344697  0.37730622  0.30285457    -0.30500
N963        N  0.62781136  0.39306010  0.26671896     0.16000
C964        C  0.64262850  0.38289048  0.23561915    -0.30500
H965        H  0.64114539  0.39075848  0.20327113     0.18000
C966        C  0.62126909  0.24610439  0.29983151    -0.29500
N967        N  0.61413961  0.22478330  0.26391529     0.14700
C968        C  0.63231253  0.25269356  0.23313651    -0.29500
C969        C  0.74564558  0.36829861  0.33170048    -0.29700
N970        N  0.77386100  0.38247035  0.30345130     0.15300
H971        H  0.75155030  0.37106782  0.36520658     0.17900
C972        C  0.75596506  0.37481882  0.26477832    -0.29800
H973        H  0.77119735  0.38351787  0.23613151     0.17900
H974        H  0.63174962  0.24423139  0.20106203     0.17900
H975        H  0.62532533  0.38199108  0.33271578     0.18000
H976        H  0.61092170  0.23190609  0.32968661     0.17900
C977        C  0.66855586  0.29240708  0.42487213    -0.11600
C978        C  0.64668298  0.30592363  0.44384457     0.10600
C979        C  0.61862265  0.31042332  0.42013355    -0.11600
C980        C  0.62262427  0.31591722  0.37791843    -0.11600
C981        C  0.65486858  0.31726629  0.36130249     0.10600
C982        C  0.67362071  0.29931535  0.38330952    -0.11600
H983        H  0.68630094  0.28280153  0.44291654     0.14500
H984        H  0.59468001  0.31046009  0.43377882     0.14500
H985        H  0.60102074  0.31917003  0.35901931     0.14500
H986        H  0.69371505  0.29292687  0.36897731     0.14500
C987        C  0.70233952  0.31712850  0.13559024    -0.11600
C988        C  0.69507854  0.34439576  0.11238496     0.10600
C989        C  0.70241236  0.38117201  0.13111714    -0.11600
C990        C  0.70066585  0.38162313  0.17362039    -0.11600
C991        C  0.69244007  0.34557593  0.19536655     0.10600
C992        C  0.70091121  0.31767821  0.17801122    -0.11600
H993        H  0.70498559  0.29316064  0.12107005     0.14500
H994        H  0.70564333  0.40726914  0.11301949     0.14500
H995        H  0.70350829  0.40854073  0.18864641     0.14500
H996        H  0.70279547  0.29431685  0.19644370     0.14500
C997        C  0.59298285  0.18082922  0.26122971    -0.11500
C998        C  0.57437231  0.14305015  0.26341603    -0.13100
C999        C  0.81533770  0.40487028  0.31052388    -0.11500
C1000       C  0.85091712  0.42639212  0.30846146    -0.13100
C1001       C  0.60900374  0.41574002  0.26289255    -0.11500
C1002       C  0.59317443  0.43555225  0.26331890    -0.13100
C1003       C  0.59384727  0.17536880  0.04916953    -0.11500
C1004       C  0.57428812  0.13776211  0.04832356    -0.13100
C1005       C  0.84434813  0.42993469  0.00122881    -0.11500
C1006       C  0.80877042  0.40797531  0.00101317    -0.13100
C1007       C  0.58824475  0.42597275  0.03460439    -0.11500
C1008       C  0.60197677  0.40421200  0.03397058    -0.13100
C1009       C  0.93081013  0.10288949  0.27654781    -0.11500
C1010       C  0.91705019  0.12461414  0.27725144    -0.13100
C1011       C  0.92481580  0.35318204  0.26220289    -0.11500
C1012       C  0.94436767  0.39079296  0.26301797    -0.13100
C1013       C  0.67436076  0.09854738  0.30969340    -0.11500
C1014       C  0.70994192  0.12042961  0.30997192    -0.13100
C1015       C  0.92576603  0.09328169  0.54792923    -0.11500
C1016       C  0.91001285  0.11317045  0.54837801    -0.13100
C1017       C  0.92575211  0.34785469  0.05021601    -0.11500
C1018       C  0.94441753  0.38562904  0.04801219    -0.13100
C1019       C  0.66790335  0.10248231  0.00273652    -0.11500
C1020       C  0.70348482  0.12397472  0.00067676    -0.13100
C1021       C  0.89623487  0.21290798  0.43338676    -0.11600
C1022       C  0.86398958  0.21154214  0.45001350     0.10600
C1023       C  0.84514500  0.22936933  0.42796708    -0.11600
C1024       C  0.85005385  0.23605383  0.38636303    -0.11600
C1025       C  0.87195322  0.22254481  0.36742962     0.10600
C1026       C  0.90011783  0.21821647  0.39114465    -0.11600
H1027       H  0.91790904  0.20977952  0.45229415     0.14500
H1028       H  0.82505537  0.23576894  0.44229348     0.14500
H1029       H  0.83222863  0.24554260  0.36829330     0.14500
H1030       H  0.92405496  0.21817629  0.37749133     0.14500
C1031       C  0.81815723  0.14697281  0.13761308    -0.11600
C1032       C  0.82629690  0.18300238  0.11588810     0.10600
C1033       C  0.81778238  0.21084793  0.13327902    -0.11600
C1034       C  0.81642452  0.21140271  0.17570538    -0.11600
C1035       C  0.82379318  0.18419071  0.19886949     0.10600
C1036       C  0.81648758  0.14743062  0.18012477    -0.11600
H1037       H  0.81534746  0.12008172  0.12256373     0.14500
H1038       H  0.81583767  0.23418605  0.11486891     0.14500
H1039       H  0.81374484  0.23533611  0.19025323     0.14500
H1040       H  0.81332940  0.12135601  0.19820879     0.14500
C1041       C  0.83898084  0.18969113  0.57340762     0.31800
C1042       C  0.85453551  0.20047070  0.99319582     0.31800
C1043       C  0.80289650  0.17331263  0.54295014    -0.04400
C1044       C  0.86672873  0.23574910  0.56084576    -0.05200
C1045       C  0.86033213  0.16837933  0.55871781    -0.05100
C1046       C  0.81007458  0.17807331  0.00144731    -0.04400
C1047       C  0.87419134  0.24055306  0.01940917    -0.05200
C1048       C  0.86768535  0.17336222  0.01674503    -0.05100
C1049       C  0.77318819  0.16046294  0.97953979    -0.30500
N1050       N  0.74495739  0.14629651  0.00777047     0.16000
C1051       C  0.76282611  0.15387262  0.54645059    -0.30500
H1052       H  0.74757856  0.14519361  0.57508677     0.18000
C1053       C  0.89746263  0.28263337  0.01154282    -0.29500
N1054       N  0.90454983  0.30390656  0.54747995     0.14700
C1055       C  0.88636500  0.27596113  0.57822841    -0.29500
C1056       C  0.88556964  0.15162068  0.00844092    -0.29700
N1057       N  0.89122499  0.13587257  0.04457013     0.15300
H1058       H  0.89373819  0.14698886  0.97858452     0.17900
C1059       C  0.87631238  0.14593547  0.57565853    -0.29800
H1060       H  0.87777240  0.13803461  0.60799787     0.17900
H1061       H  0.88691259  0.28438346  0.61031383     0.17900
H1062       H  0.76730411  0.15777266  0.94603059     0.18000
H1063       H  0.90784801  0.29686713  0.98170913     0.17900
C1064       C  0.86133764  0.21018914  0.82347261     0.31800
C1065       C  0.83938300  0.19444959  0.74230298     0.31800
C1066       C  0.81616321  0.18309401  0.81262472    -0.04400
C1067       C  0.87525374  0.24861396  0.79677905    -0.05200
C1068       C  0.87657396  0.18566782  0.80226704    -0.05100
C1069       C  0.80549768  0.17588848  0.77076833    -0.04400
C1070       C  0.86462045  0.24126351  0.75481277    -0.05200
C1071       C  0.86583066  0.17826537  0.75986796    -0.05100
C1072       C  0.76489940  0.15221509  0.76551045    -0.30500
N1073       N  0.75048148  0.14454886  0.80360901     0.16000
C1074       C  0.78118370  0.16280924  0.83298173    -0.30500
H1075       H  0.77816132  0.16120612  0.86629327     0.18000
C1076       C  0.88266888  0.28022441  0.73626430    -0.29500
N1077       N  0.90256098  0.30979462  0.76679565     0.14700
C1078       C  0.89839860  0.29098323  0.80383767    -0.29500
C1079       C  0.88166362  0.15627654  0.74554224    -0.29700
N1080       N  0.89976130  0.14861177  0.77844986     0.15300
H1081       H  0.87984421  0.14589834  0.71392067     0.17900
C1082       C  0.89628082  0.16542167  0.81331258    -0.29800
H1083       H  0.90595569  0.16115526  0.84418578     0.17900
H1084       H  0.91186591  0.30699884  0.83346917     0.17900
H1085       H  0.74711536  0.14108180  0.73629103     0.18000
H1086       H  0.88228820  0.28681795  0.70337850     0.17900
C1087       C  0.62809153  0.07333916  0.51436290     0.78200
Tb1088     Tb  0.96766107  0.01369080  0.52461490     1.80700
O1089       O  0.62114779  0.05071136  0.54612754    -0.49800
O1090       O  0.59094725  0.48589072  0.55988684    -0.57300
C1091       C  0.55173023  0.09336397  0.54277101     0.94000
O1092       O  0.95508620  0.05402352  0.06915446    -0.56800
Tb1093     Tb  0.55162093  0.01246051  0.53610966     1.78100
O1094       O  0.90732368  0.48662643  0.48417946    -0.57300
O1095       O  0.99906944  0.45259791  0.56441836    -0.76100
O1096       O  0.55797386  0.07083334  0.56725684    -0.75400
O1097       O  0.53347191  0.00980783  0.95709458    -0.60700
C1098       C  0.96768079  0.43023309  0.54212668     0.93600
O1099       O  0.98194705  0.01233656  0.60394693    -0.72600
C1100       C  0.88634781  0.95749646  0.50838841     0.77100
C1101       C  0.57488468  0.45451766  0.53554460     0.78000
O1102       O  0.59717083  0.06713219  0.99388683    -0.57900
O1103       O  0.54689053  0.45130103  0.51165106    -0.49800
O1104       O  0.98266070  0.01809582  0.94947313    -0.75900
O1105       O  0.53934659  0.01574374  0.61185628    -0.59900
C1106       C  0.51000653  0.01410781  0.62967769     0.91800
C1107       C  0.50870956  0.01413095  0.93149861     0.93100
C1108       C  0.94181021  0.06782146  0.04073804     0.77400
O1109       O  0.90545711  0.95578582  0.54044323    -0.49200
O1110       O  0.94249496  0.55595914  0.00476077    -0.50400
O1111       O  0.95773366  0.44714174  0.51375597    -0.63200
O1112       O  0.52682500  0.07633239  0.51207958    -0.64300
C1113       C  0.63235734  0.07104953  0.80259672     0.78200
Tb1114     Tb  0.96721951  0.01624807  0.77502649     1.80700
O1115       O  0.61141354  0.04193560  0.82683257    -0.49800
O1116       O  0.57628811  0.47275516  0.80644962    -0.57300
C1117       C  0.55114666  0.09842131  0.76918909     0.94000
O1118       O  0.97207689  0.07746698  0.79948025    -0.56800
Tb1119     Tb  0.55103480  0.01492565  0.78653844     1.78100
O1120       O  0.89769527  0.47805964  0.76500845    -0.57300
O1121       O  0.99191593  0.45226179  0.79914865    -0.76100
O1122       O  0.56098956  0.08146480  0.79760363    -0.75400
O1123       O  0.53675195  0.01624408  0.70719554    -0.60700
C1124       C  0.96694936  0.43520486  0.76851088     0.93600
O1125       O  0.98532302  0.01892780  0.85405853    -0.72600
C1126       C  0.89073417  0.95550482  0.79683332     0.77100
C1127       C  0.57700045  0.46089211  0.77048200     0.78000
O1128       O  0.61320942  0.07279966  0.77059596    -0.57900
O1129       O  0.56364699  0.47459577  0.74204726    -0.49800
O1130       O  0.97938385  0.01288527  0.69927283    -0.75900
O1131       O  0.53608293  0.01056473  0.86168943    -0.59900
C1132       C  0.51006115  0.01457463  0.87966219     0.91800
C1133       C  0.50870496  0.01448621  0.68145580     0.93100
C1134       C  0.94413053  0.07432255  0.77556206     0.77400
O1135       O  0.92164293  0.96173246  0.81735290    -0.49200
O1136       O  0.92804224  0.54296968  0.75119233    -0.50400
O1137       O  0.96070054  0.45772493  0.74400821    -0.63200
O1138       O  0.51987277  0.07604994  0.74673972    -0.64300
C1139       C  0.65736108  0.31830412  0.48780269     0.31800
C1140       C  0.67944033  0.33411179  0.56895479     0.31800
C1141       C  0.64224336  0.34293540  0.50901264    -0.04400
C1142       C  0.64340501  0.27990330  0.51453630    -0.05200
C1143       C  0.70255149  0.34531767  0.49859039    -0.05100
C1144       C  0.65305116  0.35038457  0.55139780    -0.04400
C1145       C  0.65409531  0.28728470  0.55649496    -0.05200
C1146       C  0.71328606  0.35254359  0.54043416    -0.05100
C1147       C  0.63730253  0.37247038  0.56571249    -0.30500
N1148       N  0.61919683  0.38013808  0.53280959     0.16000
C1149       C  0.62258486  0.36323290  0.49796547    -0.30500
H1150       H  0.61288356  0.36747567  0.96709712     0.18000
C1151       C  0.63604701  0.24833540  0.57507034    -0.29500
N1152       N  0.61610350  0.21875017  0.54456168     0.14700
C1153       C  0.62023452  0.23753460  0.50751012    -0.29500
C1154       C  0.75389601  0.37615910  0.54561091    -0.29700
N1155       N  0.76824754  0.38379358  0.50747549     0.15300
H1156       H  0.77173074  0.38731756  0.57479796     0.17900
C1157       C  0.73749171  0.36555881  0.47816274    -0.29800
H1158       H  0.74045083  0.36718454  0.94483963     0.17900
H1159       H  0.60674553  0.22149974  0.97789172     0.17900
H1160       H  0.63917943  0.38290567  0.59732389     0.18000
H1161       H  0.63647537  0.24175681  0.60795566     0.17900
C1162       C  0.67978965  0.33896066  0.73786584     0.31800
C1163       C  0.66430267  0.32829609  0.81810420     0.31800
C1164       C  0.65852717  0.36036976  0.75255662    -0.04400
C1165       C  0.65199087  0.29292772  0.75047604    -0.05200
C1166       C  0.71589156  0.35531888  0.76830165    -0.05100
C1167       C  0.65121491  0.35544944  0.79454274    -0.04400
C1168       C  0.64456123  0.28817949  0.79192082    -0.05200
C1169       C  0.70874489  0.35061151  0.80981423    -0.05100
C1170       C  0.63344708  0.37730627  0.80285467    -0.30500
N1171       N  0.62781145  0.39306018  0.76671905     0.16000
C1172       C  0.64262855  0.38289051  0.73561924    -0.30500
H1173       H  0.64114536  0.39075844  0.70327116     0.18000
C1174       C  0.62126921  0.24610436  0.79983147    -0.29500
N1175       N  0.61413978  0.22478331  0.76391523     0.14700
C1176       C  0.63231268  0.25269358  0.73313646    -0.29500
C1177       C  0.74564556  0.36829862  0.83170052    -0.29700
N1178       N  0.77386102  0.38247043  0.80345145     0.15300
H1179       H  0.75155026  0.37106776  0.86520689     0.17900
C1180       C  0.75596508  0.37481888  0.76477842    -0.29800
H1181       H  0.77119739  0.38351794  0.73613166     0.17900
H1182       H  0.63174982  0.24423142  0.70106199     0.17900
H1183       H  0.62532539  0.38199106  0.83271588     0.18000
H1184       H  0.61092182  0.23190606  0.82968649     0.17900
C1185       C  0.66855589  0.29240709  0.92487213    -0.11600
C1186       C  0.64668308  0.30592367  0.94384457     0.10600
C1187       C  0.61862271  0.31042338  0.92013356    -0.11600
C1188       C  0.62262435  0.31591722  0.87791844    -0.11600
C1189       C  0.65486859  0.31726628  0.86130248     0.10600
C1190       C  0.67362076  0.29931533  0.88330952    -0.11600
H1191       H  0.68630099  0.28280147  0.94291655     0.14500
H1192       H  0.59468021  0.31046011  0.93377877     0.14500
H1193       H  0.60102066  0.31917000  0.85901924     0.14500
H1194       H  0.69371498  0.29292684  0.86897735     0.14500
C1195       C  0.70233954  0.31712852  0.63559020    -0.11600
C1196       C  0.69507855  0.34439577  0.61238493     0.10600
C1197       C  0.70241238  0.38117202  0.63111711    -0.11600
C1198       C  0.70066595  0.38162320  0.67362038    -0.11600
C1199       C  0.69244015  0.34557596  0.69536653     0.10600
C1200       C  0.70091132  0.31767829  0.67801118    -0.11600
H1201       H  0.70498558  0.29316063  0.62106996     0.14500
H1202       H  0.70564332  0.40726916  0.61301945     0.14500
H1203       H  0.70350839  0.40854071  0.68864637     0.14500
H1204       H  0.70279562  0.29431689  0.69644372     0.14500
C1205       C  0.59298288  0.18082922  0.76122964    -0.11500
C1206       C  0.57437233  0.14305016  0.76341605    -0.13100
C1207       C  0.81533776  0.40487026  0.81052393    -0.11500
C1208       C  0.85091718  0.42639199  0.80846140    -0.13100
C1209       C  0.60900377  0.41574001  0.76289262    -0.11500
C1210       C  0.59317443  0.43555224  0.76331894    -0.13100
C1211       C  0.59384730  0.17536883  0.54916941    -0.11500
C1212       C  0.57428823  0.13776213  0.54832334    -0.13100
C1213       C  0.84434815  0.42993473  0.50122879    -0.11500
C1214       C  0.80877043  0.40797537  0.50101315    -0.13100
C1215       C  0.58824479  0.42597277  0.53460458    -0.11500
C1216       C  0.60197677  0.40421201  0.53397063    -0.13100
C1217       C  0.93081022  0.10288962  0.77654794    -0.11500
C1218       C  0.91705026  0.12461421  0.77725146    -0.13100
C1219       C  0.92481585  0.35318207  0.76220293    -0.11500
C1220       C  0.94436782  0.39079299  0.76301790    -0.13100
C1221       C  0.67436079  0.09854747  0.80969346    -0.11500
C1222       C  0.70994196  0.12042966  0.80997188    -0.13100
C1223       C  0.92576594  0.09328162  0.04792905    -0.11500
C1224       C  0.91001280  0.11317043  0.04837794    -0.13100
C1225       C  0.92575215  0.34785473  0.55021603    -0.11500
C1226       C  0.94441770  0.38562908  0.54801215    -0.13100
C1227       C  0.66790335  0.10248233  0.50273648    -0.11500
C1228       C  0.70348480  0.12397475  0.50067676    -0.13100
C1229       C  0.89623487  0.21290802  0.93338679    -0.11600
C1230       C  0.86398955  0.21154204  0.95001352     0.10600
C1231       C  0.84514488  0.22936922  0.92796711    -0.11600
C1232       C  0.85005387  0.23605382  0.88636309    -0.11600
C1233       C  0.87195321  0.22254484  0.86742965     0.10600
C1234       C  0.90011784  0.21821650  0.89114472    -0.11600
H1235       H  0.91790918  0.20977959  0.95229431     0.14500
H1236       H  0.82505536  0.23576872  0.94229342     0.14500
H1237       H  0.83222856  0.24554266  0.86829328     0.14500
H1238       H  0.92405501  0.21817629  0.87749133     0.14500
C1239       C  0.81815737  0.14697289  0.63761307    -0.11600
C1240       C  0.82629702  0.18300243  0.61588809     0.10600
C1241       C  0.81778239  0.21084792  0.63327898    -0.11600
C1242       C  0.81642458  0.21140272  0.67570533    -0.11600
C1243       C  0.82379330  0.18419079  0.69886946     0.10600
C1244       C  0.81648763  0.14743064  0.68012474    -0.11600
H1245       H  0.81534755  0.12008171  0.62256367     0.14500
H1246       H  0.81583761  0.23418597  0.61486883     0.14500
H1247       H  0.81374489  0.23533621  0.69025323     0.14500
H1248       H  0.81332934  0.12135601  0.69820875     0.14500
C1249       C  0.83898084  0.68969113  0.07340766     0.31800
C1250       C  0.85453558  0.70047083  0.49319585     0.31800
C1251       C  0.80289654  0.67331270  0.04295018    -0.04400
C1252       C  0.86672873  0.73574912  0.06084578    -0.05200
C1253       C  0.86033212  0.66837932  0.05871784    -0.05100
C1254       C  0.81007466  0.67807347  0.50144736    -0.04400
C1255       C  0.87419143  0.74055316  0.51940924    -0.05200
C1256       C  0.86768541  0.67336232  0.51674501    -0.05100
C1257       C  0.77318825  0.66046299  0.47953986    -0.30500
N1258       N  0.74495743  0.64629652  0.50777050     0.16000
C1259       C  0.76282617  0.65387266  0.04645066    -0.30500
H1260       H  0.74757864  0.64519370  0.07508689     0.18000
C1261       C  0.89746270  0.78263346  0.51154292    -0.29500
N1262       N  0.90454981  0.80390656  0.04747993     0.14700
C1263       C  0.88636504  0.77596118  0.07822835    -0.29500
C1264       C  0.88556977  0.65162087  0.50844089    -0.29700
N1265       N  0.89122509  0.63587270  0.54457006     0.15300
H1266       H  0.89373837  0.64698912  0.47858445     0.17900
C1267       C  0.87631245  0.64593555  0.07565848    -0.29800
H1268       H  0.87777248  0.63803462  0.10799803     0.17900
H1269       H  0.88691273  0.78438356  0.11031388     0.17900
H1270       H  0.76730418  0.65777265  0.44603062     0.18000
H1271       H  0.90784808  0.79686724  0.48170919     0.17900
C1272       C  0.86133769  0.71018921  0.32347255     0.31800
C1273       C  0.83938302  0.69444961  0.24230297     0.31800
C1274       C  0.81616327  0.68309404  0.31262473    -0.04400
C1275       C  0.87525375  0.74861402  0.29677898    -0.05200
C1276       C  0.87657404  0.68566790  0.30226702    -0.05100
C1277       C  0.80549771  0.67588848  0.27076834    -0.04400
C1278       C  0.86462041  0.74126355  0.25481269    -0.05200
C1279       C  0.86583073  0.67826545  0.25986793    -0.05100
C1280       C  0.76489945  0.65221510  0.26551050    -0.30500
N1281       N  0.75048154  0.64454901  0.30360909     0.16000
C1282       C  0.78118378  0.66280935  0.33298172    -0.30500
H1283       H  0.77816142  0.66120624  0.36629344     0.18000
C1284       C  0.88266881  0.78022442  0.23626425    -0.29500
N1285       N  0.90256101  0.80979464  0.26679551     0.14700
C1286       C  0.89839860  0.79098326  0.30383755    -0.29500
C1287       C  0.88166361  0.65627653  0.24554226    -0.29700
N1288       N  0.89976132  0.64861176  0.27844990     0.15300
H1289       H  0.87984416  0.64589824  0.21392067     0.17900
C1290       C  0.89628078  0.66542167  0.31331257    -0.29800
H1291       H  0.90595561  0.66115516  0.34418590     0.17900
H1292       H  0.91186592  0.80699890  0.33346910     0.17900
H1293       H  0.74711541  0.64108177  0.23629110     0.18000
H1294       H  0.88228806  0.78681800  0.20337823     0.17900
C1295       C  0.62809151  0.57333910  0.01436284     0.78200
Tb1296     Tb  0.96766093  0.51369067  0.02461484     1.80700
O1297       O  0.62114773  0.55071119  0.04612741    -0.49800
O1298       O  0.59094704  0.98589054  0.05988673    -0.57300
C1299       C  0.55173019  0.59336394  0.04277106     0.94000
O1300       O  0.95508617  0.55402349  0.56915462    -0.56800
Tb1301     Tb  0.55162087  0.51246050  0.03610964     1.78100
O1302       O  0.90732364  0.98662643  0.98417942    -0.57300
O1303       O  0.99906938  0.95259791  0.06441834    -0.76100
O1304       O  0.55797398  0.57083341  0.06725684    -0.75400
O1305       O  0.53347207  0.50980791  0.45709456    -0.60700
C1306       C  0.96768071  0.93023313  0.04212669     0.93600
O1307       O  0.98194714  0.51233663  0.10394688    -0.72600
C1308       C  0.88634773  0.45749641  0.00838842     0.77100
C1309       C  0.57488455  0.95451752  0.03554445     0.78000
O1310       O  0.59717085  0.56713216  0.49388681    -0.57900
O1311       O  0.54689043  0.95130091  0.01165087    -0.49800
O1312       O  0.98266070  0.51809585  0.44947315    -0.75900
O1313       O  0.53934658  0.51574358  0.11185631    -0.59900
C1314       C  0.51000657  0.51410777  0.12967767     0.91800
C1315       C  0.50870966  0.51413101  0.43149860     0.93100
C1316       C  0.94181026  0.56782151  0.54073821     0.77400
O1317       O  0.90545696  0.45578579  0.04044331    -0.49200
O1318       O  0.94249514  0.05595926  0.50476094    -0.50400
O1319       O  0.95773366  0.94714179  0.01375592    -0.63200
O1320       O  0.52682490  0.57633231  0.01207968    -0.64300
C1321       C  0.63235738  0.57104953  0.30259659     0.78200
Tb1322     Tb  0.96721941  0.51624803  0.27502651     1.80700
O1323       O  0.61141359  0.54193555  0.32683241    -0.49800
O1324       O  0.57628815  0.97275514  0.30644956    -0.57300
C1325       C  0.55114657  0.59842127  0.26918900     0.94000
O1326       O  0.97207696  0.57746707  0.29948018    -0.56800
Tb1327     Tb  0.55103480  0.51492567  0.28653835     1.78100
O1328       O  0.89769530  0.97805970  0.26500850    -0.57300
O1329       O  0.99191591  0.95226181  0.29914857    -0.76100
O1330       O  0.56098948  0.58146478  0.29760353    -0.75400
O1331       O  0.53675195  0.51624403  0.20719549    -0.60700
C1332       C  0.96694928  0.93520485  0.26851088     0.93600
O1333       O  0.98532293  0.51892770  0.35405850    -0.72600
C1334       C  0.89073413  0.45550480  0.29683341     0.77100
C1335       C  0.57700041  0.96089203  0.27048196     0.78000
O1336       O  0.61320944  0.57279969  0.27059586    -0.57900
O1337       O  0.56364687  0.97459559  0.24204721    -0.49800
O1338       O  0.97938383  0.51288519  0.19927285    -0.75900
O1339       O  0.53608303  0.51056489  0.36168932    -0.59900
C1340       C  0.51006123  0.51457464  0.37966213     0.91800
C1341       C  0.50870494  0.51448614  0.18145577     0.93100
C1342       C  0.94413054  0.57432261  0.27556205     0.77400
O1343       O  0.92164290  0.46173251  0.31735302    -0.49200
O1344       O  0.92804220  0.04296954  0.25119214    -0.50400
O1345       O  0.96070037  0.95772488  0.24400824    -0.63200
O1346       O  0.51987269  0.57604985  0.24673959    -0.64300
C1347       C  0.65736105  0.81830404  0.98780272     0.31800
C1348       C  0.67944031  0.83411174  0.06895482     0.31800
C1349       C  0.64224331  0.84293531  0.00901260    -0.04400
C1350       C  0.64340496  0.77990320  0.01453635    -0.05200
C1351       C  0.70255147  0.84531764  0.99859042    -0.05100
C1352       C  0.65305113  0.85038447  0.05139777    -0.04400
C1353       C  0.65409526  0.78728462  0.05649502    -0.05200
C1354       C  0.71328606  0.85254358  0.04043421    -0.05100
C1355       C  0.63730247  0.87247026  0.06571252    -0.30500
N1356       N  0.61919671  0.88013788  0.03280950     0.16000
C1357       C  0.62258480  0.86323277  0.99796549    -0.30500
H1358       H  0.61288365  0.86747560  0.46709728     0.18000
C1359       C  0.63604700  0.74833531  0.07507039    -0.29500
N1360       N  0.61610358  0.71875008  0.04456175     0.14700
C1361       C  0.62023454  0.73753449  0.00751016    -0.29500
C1362       C  0.75389598  0.87615915  0.04561092    -0.29700
N1363       N  0.76824756  0.88379367  0.00747555     0.15300
H1364       H  0.77173084  0.88731763  0.07479812     0.17900
C1365       C  0.73749170  0.86555881  0.97816281    -0.29800
H1366       H  0.74045090  0.86718457  0.44483971     0.17900
H1367       H  0.60674549  0.72149970  0.47789165     0.17900
H1368       H  0.63917940  0.88290551  0.09732365     0.18000
H1369       H  0.63647538  0.74175669  0.10795577     0.17900
C1370       C  0.67978963  0.83896060  0.23786587     0.31800
C1371       C  0.66430266  0.82829610  0.31810422     0.31800
C1372       C  0.65852705  0.86036960  0.25255657    -0.04400
C1373       C  0.65199092  0.79292767  0.25047610    -0.05200
C1374       C  0.71589158  0.85531895  0.26830163    -0.05100
C1375       C  0.65121475  0.85544928  0.29454269    -0.04400
C1376       C  0.64456128  0.78817946  0.29192091    -0.05200
C1377       C  0.70874490  0.85061159  0.30981422    -0.05100
C1378       C  0.63344686  0.87730609  0.30285452    -0.30500
N1379       N  0.62781129  0.89305998  0.26671894     0.16000
C1380       C  0.64262845  0.88289038  0.23561913    -0.30500
H1381       H  0.64114538  0.89075839  0.20327111     0.18000
C1382       C  0.62126915  0.74610439  0.29983152    -0.29500
N1383       N  0.61413960  0.72478326  0.26391531     0.14700
C1384       C  0.63231257  0.75269355  0.23313652    -0.29500
C1385       C  0.74564557  0.86829855  0.33170056    -0.29700
N1386       N  0.77386103  0.88247028  0.30345132     0.15300
H1387       H  0.75155029  0.87106770  0.36520659     0.17900
C1388       C  0.75596505  0.87481876  0.26477847    -0.29800
H1389       H  0.77119752  0.88351784  0.23613135     0.17900
H1390       H  0.63174959  0.74423131  0.20106201     0.17900
H1391       H  0.62532519  0.88199098  0.33271581     0.18000
H1392       H  0.61092167  0.73190602  0.32968668     0.17900
C1393       C  0.66855590  0.79240719  0.42487216    -0.11600
C1394       C  0.64668301  0.80592362  0.44384463     0.10600
C1395       C  0.61862265  0.81042330  0.42013358    -0.11600
C1396       C  0.62262434  0.81591731  0.37791849    -0.11600
C1397       C  0.65486859  0.81726631  0.36130253     0.10600
C1398       C  0.67362079  0.79931538  0.38330957    -0.11600
H1399       H  0.68630117  0.78280162  0.44291670     0.14500
H1400       H  0.59467998  0.81046002  0.43377883     0.14500
H1401       H  0.60102081  0.81917017  0.35901938     0.14500
H1402       H  0.69371495  0.79292692  0.36897743     0.14500
C1403       C  0.70233961  0.81712853  0.13559022    -0.11600
C1404       C  0.69507862  0.84439578  0.11238496     0.10600
C1405       C  0.70241239  0.88117204  0.13111713    -0.11600
C1406       C  0.70066587  0.88162311  0.17362041    -0.11600
C1407       C  0.69244012  0.84557592  0.19536656     0.10600
C1408       C  0.70091124  0.81767820  0.17801120    -0.11600
H1409       H  0.70498566  0.79316070  0.12107004     0.14500
H1410       H  0.70564330  0.90726905  0.11301957     0.14500
H1411       H  0.70350828  0.90854068  0.18864642     0.14500
H1412       H  0.70279541  0.79431674  0.19644366     0.14500
C1413       C  0.59298272  0.68082924  0.26122970    -0.11500
C1414       C  0.57437214  0.64305012  0.26341605    -0.13100
C1415       C  0.81533773  0.90487027  0.31052393    -0.11500
C1416       C  0.85091716  0.92639212  0.30846142    -0.13100
C1417       C  0.60900365  0.91573989  0.26289252    -0.11500
C1418       C  0.59317436  0.93555213  0.26331890    -0.13100
C1419       C  0.59384730  0.67536874  0.04916947    -0.11500
C1420       C  0.57428812  0.63776208  0.04832337    -0.13100
C1421       C  0.84434818  0.92993460  0.00122880    -0.11500
C1422       C  0.80877045  0.90797528  0.00101319    -0.13100
C1423       C  0.58824475  0.92597266  0.03460448    -0.11500
C1424       C  0.60197672  0.90421190  0.03397060    -0.13100
C1425       C  0.93081033  0.60288973  0.27654785    -0.11500
C1426       C  0.91705033  0.62461433  0.27725145    -0.13100
C1427       C  0.92481588  0.85318209  0.26220287    -0.11500
C1428       C  0.94436777  0.89079301  0.26301793    -0.13100
C1429       C  0.67436082  0.59854756  0.30969338    -0.11500
C1430       C  0.70994201  0.62042984  0.30997192    -0.13100
C1431       C  0.92576610  0.59328180  0.54792916    -0.11500
C1432       C  0.91001295  0.61317062  0.54837792    -0.13100
C1433       C  0.92575216  0.84785478  0.05021599    -0.11500
C1434       C  0.94441762  0.88562911  0.04801217    -0.13100
C1435       C  0.66790335  0.60248230  0.00273652    -0.11500
C1436       C  0.70348484  0.62397466  0.00067685    -0.13100
C1437       C  0.89623485  0.71290804  0.43338676    -0.11600
C1438       C  0.86398955  0.71154212  0.45001351     0.10600
C1439       C  0.84514491  0.72936926  0.42796710    -0.11600
C1440       C  0.85005379  0.73605383  0.38636303    -0.11600
C1441       C  0.87195318  0.72254485  0.36742963     0.10600
C1442       C  0.90011780  0.71821645  0.39114462    -0.11600
H1443       H  0.91790914  0.70977973  0.45229415     0.14500
H1444       H  0.82505537  0.73576890  0.44229350     0.14500
H1445       H  0.83222865  0.74554263  0.36829337     0.14500
H1446       H  0.92405477  0.71817623  0.37749137     0.14500
C1447       C  0.81815725  0.64697278  0.13761312    -0.11600
C1448       C  0.82629690  0.68300231  0.11588810     0.10600
C1449       C  0.81778238  0.71084789  0.13327901    -0.11600
C1450       C  0.81642463  0.71140273  0.17570535    -0.11600
C1451       C  0.82379329  0.68419078  0.19886949     0.10600
C1452       C  0.81648761  0.64743062  0.18012480    -0.11600
H1453       H  0.81534746  0.62008156  0.12256374     0.14500
H1454       H  0.81583763  0.73418595  0.11486887     0.14500
H1455       H  0.81374498  0.73533628  0.19025322     0.14500
H1456       H  0.81332941  0.62135603  0.19820889     0.14500
C1457       C  0.83898083  0.68969114  0.57340764     0.31800
C1458       C  0.85453557  0.70047078  0.99319584     0.31800
C1459       C  0.80289654  0.67331274  0.54295017    -0.04400
C1460       C  0.86672874  0.73574915  0.56084584    -0.05200
C1461       C  0.86033208  0.66837930  0.55871780    -0.05100
C1462       C  0.81007464  0.67807340  0.00144736    -0.04400
C1463       C  0.87419142  0.74055312  0.01940921    -0.05200
C1464       C  0.86768541  0.67336231  0.01674504    -0.05100
C1465       C  0.77318823  0.66046287  0.97953989    -0.30500
N1466       N  0.74495742  0.64629644  0.00777054     0.16000
C1467       C  0.76282616  0.65387270  0.54645062    -0.30500
H1468       H  0.74757862  0.64519371  0.57508683     0.18000
C1469       C  0.89746267  0.78263344  0.01154281    -0.29500
N1470       N  0.90454992  0.80390659  0.54748005     0.14700
C1471       C  0.88636508  0.77596119  0.57822840    -0.29500
C1472       C  0.88556979  0.65162086  0.00844092    -0.29700
N1473       N  0.89122514  0.63587275  0.04457015     0.15300
H1474       H  0.89373834  0.64698907  0.97858453     0.17900
C1475       C  0.87631234  0.64593544  0.57565843    -0.29800
H1476       H  0.87777233  0.63803447  0.60799784     0.17900
H1477       H  0.88691272  0.78438362  0.61031411     0.17900
H1478       H  0.76730412  0.65777249  0.94603062     0.18000
H1479       H  0.90784806  0.79686715  0.98170921     0.17900
C1480       C  0.86133770  0.71018922  0.82347260     0.31800
C1481       C  0.83938305  0.69444969  0.74230298     0.31800
C1482       C  0.81616328  0.68309407  0.81262473    -0.04400
C1483       C  0.87525375  0.74861405  0.79677907    -0.05200
C1484       C  0.87657405  0.68566794  0.80226703    -0.05100
C1485       C  0.80549774  0.67588857  0.77076833    -0.04400
C1486       C  0.86462042  0.74126360  0.75481278    -0.05200
C1487       C  0.86583076  0.67826552  0.75986795    -0.05100
C1488       C  0.76489946  0.65221526  0.76551045    -0.30500
N1489       N  0.75048153  0.64454910  0.80360900     0.16000
C1490       C  0.78118375  0.66280936  0.83298173    -0.30500
H1491       H  0.77816137  0.66120618  0.86629326     0.18000
C1492       C  0.88266881  0.78022448  0.73626431    -0.29500
N1493       N  0.90256099  0.80979469  0.76679569     0.14700
C1494       C  0.89839854  0.79098327  0.80383763    -0.29500
C1495       C  0.88166363  0.65627658  0.74554232    -0.29700
N1496       N  0.89976130  0.64861177  0.77844991     0.15300
H1497       H  0.87984417  0.64589825  0.71392068     0.17900
C1498       C  0.89628078  0.66542168  0.81331269    -0.29800
H1499       H  0.90595549  0.66115518  0.84418574     0.17900
H1500       H  0.91186594  0.80699897  0.83346938     0.17900
H1501       H  0.74711543  0.64108198  0.73629104     0.18000
H1502       H  0.88228814  0.78681804  0.70337850     0.17900
C1503       C  0.62809156  0.57333921  0.51436288     0.78200
Tb1504     Tb  0.96766097  0.51369069  0.52461492     1.80700
O1505       O  0.62114784  0.55071147  0.54612758    -0.49800
O1506       O  0.59094722  0.98589065  0.55988684    -0.57300
C1507       C  0.55173022  0.59336398  0.54277106     0.94000
O1508       O  0.95508617  0.55402349  0.06915444    -0.56800
Tb1509     Tb  0.55162095  0.51246054  0.53610966     1.78100
O1510       O  0.90732367  0.98662657  0.48417952    -0.57300
O1511       O  0.99906939  0.95259792  0.56441833    -0.76100
O1512       O  0.55797394  0.57083338  0.56725682    -0.75400
O1513       O  0.53347200  0.50980791  0.95709461    -0.60700
C1514       C  0.96768069  0.93023315  0.54212670     0.93600
O1515       O  0.98194712  0.51233666  0.60394694    -0.72600
C1516       C  0.88634776  0.45749641  0.50838840     0.77100
C1517       C  0.57488469  0.95451760  0.53554459     0.78000
O1518       O  0.59717082  0.56713220  0.99388685    -0.57900
O1519       O  0.54689052  0.95130094  0.51165107    -0.49800
O1520       O  0.98266071  0.51809588  0.94947314    -0.75900
O1521       O  0.53934658  0.51574361  0.61185629    -0.59900
C1522       C  0.51000659  0.51410780  0.62967769     0.91800
C1523       C  0.50870962  0.51413100  0.93149863     0.93100
C1524       C  0.94181017  0.56782144  0.04073804     0.77400
O1525       O  0.90545699  0.45578572  0.54044326    -0.49200
O1526       O  0.94249515  0.05595929  0.00476076    -0.50400
O1527       O  0.95773359  0.94714181  0.51375600    -0.63200
O1528       O  0.52682493  0.57633241  0.51207967    -0.64300
C1529       C  0.63235736  0.57104958  0.80259669     0.78200
Tb1530     Tb  0.96721952  0.51624806  0.77502650     1.80700
O1531       O  0.61141359  0.54193566  0.82683258    -0.49800
O1532       O  0.57628813  0.97275512  0.80644961    -0.57300
C1533       C  0.55114659  0.59842131  0.76918910     0.94000
O1534       O  0.97207699  0.57746706  0.79948025    -0.56800
Tb1535     Tb  0.55103480  0.51492569  0.78653847     1.78100
O1536       O  0.89769527  0.97805974  0.76500843    -0.57300
O1537       O  0.99191590  0.95226183  0.79914867    -0.76100
O1538       O  0.56098941  0.58146479  0.79760372    -0.75400
O1539       O  0.53675199  0.51624406  0.70719555    -0.60700
C1540       C  0.96694934  0.93520489  0.76851091     0.93600
O1541       O  0.98532292  0.51892766  0.85405854    -0.72600
C1542       C  0.89073423  0.45550474  0.79683335     0.77100
C1543       C  0.57700048  0.96089209  0.77048200     0.78000
O1544       O  0.61320939  0.57279967  0.77059595    -0.57900
O1545       O  0.56364700  0.97459572  0.74204726    -0.49800
O1546       O  0.97938383  0.51288522  0.69927283    -0.75900
O1547       O  0.53608305  0.51056486  0.86168946    -0.59900
C1548       C  0.51006120  0.51457462  0.87966220     0.91800
C1549       C  0.50870499  0.51448617  0.68145580     0.93100
C1550       C  0.94413057  0.57432262  0.77556212     0.77400
O1551       O  0.92164302  0.46173248  0.81735292    -0.49200
O1552       O  0.92804223  0.04296967  0.75119220    -0.50400
O1553       O  0.96070051  0.95772495  0.74400822    -0.63200
O1554       O  0.51987274  0.57604991  0.74673966    -0.64300
C1555       C  0.65736110  0.81830410  0.48780273     0.31800
C1556       C  0.67944038  0.83411181  0.56895483     0.31800
C1557       C  0.64224332  0.84293530  0.50901269    -0.04400
C1558       C  0.64340509  0.77990326  0.51453632    -0.05200
C1559       C  0.70255152  0.84531779  0.49859040    -0.05100
C1560       C  0.65305113  0.85038447  0.55139784    -0.04400
C1561       C  0.65409540  0.78728467  0.55649497    -0.05200
C1562       C  0.71328610  0.85254374  0.54043417    -0.05100
C1563       C  0.63730249  0.87247028  0.56571259    -0.30500
N1564       N  0.61919679  0.88013795  0.53280959     0.16000
C1565       C  0.62258485  0.86323279  0.49796556    -0.30500
H1566       H  0.61288356  0.86747560  0.96709712     0.18000
C1567       C  0.63604705  0.74833535  0.57507034    -0.29500
N1568       N  0.61610354  0.71875012  0.54456170     0.14700
C1569       C  0.62023456  0.73753455  0.50751013    -0.29500
C1570       C  0.75389604  0.87615927  0.54561091    -0.29700
N1571       N  0.76824759  0.88379376  0.50747550     0.15300
H1572       H  0.77173079  0.88731764  0.57479799     0.17900
C1573       C  0.73749174  0.86555895  0.47816274    -0.29800
H1574       H  0.74045088  0.86718441  0.94483971     0.17900
H1575       H  0.60674555  0.72149964  0.97789174     0.17900
H1576       H  0.63917938  0.88290552  0.59732379     0.18000
H1577       H  0.63647539  0.74175674  0.60795569     0.17900
C1578       C  0.67978963  0.83896062  0.73786587     0.31800
C1579       C  0.66430266  0.82829606  0.81810421     0.31800
C1580       C  0.65852707  0.86036964  0.75255663    -0.04400
C1581       C  0.65199088  0.79292769  0.75047606    -0.05200
C1582       C  0.71589156  0.85531889  0.76830166    -0.05100
C1583       C  0.65121483  0.85544933  0.79454274    -0.04400
C1584       C  0.64456125  0.78817946  0.79192085    -0.05200
C1585       C  0.70874490  0.85061150  0.80981424    -0.05100
C1586       C  0.63344697  0.87730616  0.80285467    -0.30500
N1587       N  0.62781133  0.89306001  0.76671905     0.16000
C1588       C  0.64262845  0.88289041  0.73561923    -0.30500
H1589       H  0.64114536  0.89075844  0.70327124     0.18000
C1590       C  0.62126911  0.74610440  0.79983145    -0.29500
N1591       N  0.61413955  0.72478328  0.76391523     0.14700
C1592       C  0.63231253  0.75269358  0.73313645    -0.29500
C1593       C  0.74564555  0.86829854  0.83170053    -0.29700
N1594       N  0.77386101  0.88247032  0.80345145     0.15300
H1595       H  0.75155027  0.87106772  0.86520687     0.17900
C1596       C  0.75596508  0.87481879  0.76477842    -0.29800
H1597       H  0.77119740  0.88351783  0.73613167     0.17900
H1598       H  0.63174956  0.74423135  0.70106195     0.17900
H1599       H  0.62532540  0.88199106  0.83271586     0.18000
H1600       H  0.61092165  0.73190604  0.82968661     0.17900
C1601       C  0.66855593  0.79240713  0.92487215    -0.11600
C1602       C  0.64668299  0.80592360  0.94384458     0.10600
C1603       C  0.61862264  0.81042326  0.92013353    -0.11600
C1604       C  0.62262426  0.81591714  0.87791841    -0.11600
C1605       C  0.65486857  0.81726620  0.86130249     0.10600
C1606       C  0.67362070  0.79931528  0.88330954    -0.11600
H1607       H  0.68630110  0.78280165  0.94291661     0.14500
H1608       H  0.59467999  0.81046004  0.93377876     0.14500
H1609       H  0.60102075  0.81916994  0.85901929     0.14500
H1610       H  0.69371503  0.79292674  0.86897731     0.14500
C1611       C  0.70233962  0.81712861  0.63559021    -0.11600
C1612       C  0.69507865  0.84439584  0.61238495     0.10600
C1613       C  0.70241238  0.88117209  0.63111716    -0.11600
C1614       C  0.70066585  0.88162313  0.67362042    -0.11600
C1615       C  0.69244009  0.84557595  0.69536656     0.10600
C1616       C  0.70091121  0.81767822  0.67801117    -0.11600
H1617       H  0.70498572  0.79316074  0.62106994     0.14500
H1618       H  0.70564330  0.90726912  0.61301960     0.14500
H1619       H  0.70350829  0.90854079  0.68864651     0.14500
H1620       H  0.70279539  0.79431677  0.69644364     0.14500
C1621       C  0.59298275  0.68082926  0.76122965    -0.11500
C1622       C  0.57437225  0.64305015  0.76341606    -0.13100
C1623       C  0.81533772  0.90487033  0.81052394    -0.11500
C1624       C  0.85091713  0.92639216  0.80846136    -0.13100
C1625       C  0.60900370  0.91573992  0.76289262    -0.11500
C1626       C  0.59317444  0.93555220  0.76331894    -0.13100
C1627       C  0.59384733  0.67536878  0.54916947    -0.11500
C1628       C  0.57428821  0.63776211  0.54832342    -0.13100
C1629       C  0.84434821  0.92993464  0.50122881    -0.11500
C1630       C  0.80877047  0.90797534  0.50101316    -0.13100
C1631       C  0.58824488  0.92597276  0.53460457    -0.11500
C1632       C  0.60197680  0.90421197  0.53397064    -0.13100
C1633       C  0.93081028  0.60288969  0.77654799    -0.11500
C1634       C  0.91705031  0.62461432  0.77725154    -0.13100
C1635       C  0.92481592  0.85318212  0.76220294    -0.11500
C1636       C  0.94436788  0.89079304  0.76301792    -0.13100
C1637       C  0.67436081  0.59854760  0.80969339    -0.11500
C1638       C  0.70994199  0.62042988  0.80997185    -0.13100
C1639       C  0.92576606  0.59328177  0.04792908    -0.11500
C1640       C  0.91001297  0.61317062  0.04837794    -0.13100
C1641       C  0.92575218  0.84785480  0.55021602    -0.11500
C1642       C  0.94441759  0.88562913  0.54801215    -0.13100
C1643       C  0.66790337  0.60248237  0.50273646    -0.11500
C1644       C  0.70348485  0.62397472  0.50067678    -0.13100
C1645       C  0.89623493  0.71290810  0.93338680    -0.11600
C1646       C  0.86398957  0.71154210  0.95001354     0.10600
C1647       C  0.84514492  0.72936922  0.92796708    -0.11600
C1648       C  0.85005387  0.73605384  0.88636308    -0.11600
C1649       C  0.87195327  0.72254488  0.86742966     0.10600
C1650       C  0.90011786  0.71821651  0.89114473    -0.11600
H1651       H  0.91790924  0.70977977  0.95229432     0.14500
H1652       H  0.82505525  0.73576879  0.94229349     0.14500
H1653       H  0.83222863  0.74554262  0.86829330     0.14500
H1654       H  0.92405505  0.71817625  0.87749136     0.14500
C1655       C  0.81815738  0.64697292  0.63761313    -0.11600
C1656       C  0.82629691  0.68300233  0.61588807     0.10600
C1657       C  0.81778234  0.71084791  0.63327895    -0.11600
C1658       C  0.81642465  0.71140279  0.67570528    -0.11600
C1659       C  0.82379332  0.68419090  0.69886946     0.10600
C1660       C  0.81648769  0.64743069  0.68012479    -0.11600
H1661       H  0.81534760  0.62008156  0.62256372     0.14500
H1662       H  0.81583758  0.73418592  0.61486878     0.14500
H1663       H  0.81374501  0.73533646  0.69025317     0.14500
H1664       H  0.81332948  0.62135627  0.69820880     0.14500
loop_ 
_geom_bond_atom_site_label_1 
_geom_bond_atom_site_label_2 
_geom_bond_distance 
_geom_bond_site_symmetry_2 
_ccdc_geom_bond_type 
C1            C3   1.516       .  S
C1            C5   1.546       .  S
C1            C4   1.543       .  S
C1          C200   1.458       .  S
C2            C6   1.543       .  S
C2            C8   1.540       .  S
C2            C7   1.521       .  S
C2          C190   1.456       .  S
C3           C11   1.368       .  A
C3          C214   1.372       .  A
C4           C15   1.392       .  A
C4          C215   1.372       .  A
C5           C19   1.386       .  A
C5          C216   1.388       .  A
C6            C9   1.392       .  A
C6          C211   1.372       .  A
C7           C13   1.373       .  A
C7          C212   1.372       .  A
C8           C16   1.381       .  A
C8          C213   1.388       .  A
C9           N10   1.361       .  A
C9           H22   1.082       .  S
N10         C219   1.347       .  A
N10         C396   1.402       .  S
C11         N218   1.347       .  A
C11          H12   1.084       .  S
C13         N222   1.347       .  A
C13          H23   1.083       .  S
N14          C15   1.359       .  A
N14         C221   1.347       .  A
N14         C185   1.403       .  S
C15          H21   1.082       .  S
C16          N17   1.352       .  A
C16          H18   1.081       .  S
N17         C227   1.354       .  A
N17         C184   1.404       .  S
C19         N225   1.354       .  A
C19          H20   1.081       .  S
C24          C26   1.542       .  S
C24          C28   1.539       .  S
C24          C27   1.514       .  S
C24         C193   1.460       .  S
C25          C29   1.511       .  S
C25          C31   1.545       .  S
C25          C30   1.540       .  S
C25         C203   1.462       .  S
C26          C34   1.386       .  A
C26          C29   1.372       .  A
C27          C38   1.367       .  A
C27          C30   1.375       .  A
C28          C42   1.383       .  A
C28          C31   1.389       .  A
C29          C32   1.369       .  A
C30          C36   1.386       .  A
C31          C39   1.382       .  A
C32          N33   1.348       .  A
C32          H45   1.082       .  S
N33          C34   1.356       .  A
N33         C182   1.396       .  S
C34          H35   1.083       .  S
C36          N37   1.355       .  A
C36          H46   1.082       .  S
N37          C38   1.346       .  A
N37         C179   1.394       .  S
C38          H44   1.082       .  S
C39          N40   1.352       .  A
C39          H41   1.082       .  S
N40          C42   1.351       .  A
N40         C178   1.400       .  S
C42          H43   1.080       .  S
C47          O49   1.262       .  A
C47         O270   1.263   1_554  A
C47         C187   1.438       .  S
Tb48         O59   2.581       .  S
Tb48         O69   2.350   1_545  S
Tb48        O694   2.348       .  S
Tb48        O487   2.351   1_545  S
Tb48        O470   2.352   1_544  S
Tb48        O272   2.509   1_554  S
Tb48        O260   2.370       .  S
Tb48        O904   2.334       .  S
O49         Tb53   2.345       .  S
O50          C61   1.260       .  A
O50        Tb469   2.348       .  S
C51          O56   1.253       .  A
C51          O72   1.260       .  A
C51         C172   1.424       .  S
O52          C68   1.261       .  A
O52        Tb256   2.370       .  S
Tb53         O56   2.319       .  S
Tb53         O65   2.535       .  S
Tb53        O466   2.348   1_545  S
Tb53        O265   2.583   1_554  S
Tb53        O270   2.367   1_554  S
Tb53        O479   2.359   1_545  S
Tb53       O1303   2.331   1_445  S
O54         C476   1.257   1_556  A
O54        Tb464   2.352   1_556  S
O55          C58   1.253       .  A
O55       Tb1301   2.331       .  S
O57          C67   1.316       .  A
O57        Tb261   2.583       .  S
C58          O71   1.260       .  A
C58         C186   1.438       .  S
O59         C898   1.317       .  A
C60          O69   1.260       .  A
C60         O470   1.257   1_554  A
C60         C589   1.428       .  S
C61          O63   1.262       .  A
C61         C175   1.433       .  S
O62         C255   1.263       .  A
O62        Tb261   2.367       .  S
O63        Tb469   2.359       .  S
O64         C899   1.298       .  A
O64        Tb256   2.509       .  S
O65          C66   1.308       .  A
C66         O891   1.317   1_455  A
C66          C93   1.670       .  S
C67         O896   1.298   1_455  A
C67          C92   1.671       .  S
C68         O486   1.257       .  A
C68         C183   1.437       .  S
O70         C484   1.257       .  A
O70        Tb672   2.348       .  S
O71        Tb464   2.351       .  S
O72        Tb880   2.334   1_455  S
C73          O88   1.260       .  A
C73          O75   1.257       .  A
C73         C181   1.427       .  S
Tb74         O90   2.535       .  S
Tb74         O85   2.583       .  S
Tb74         O78   2.358       .  S
Tb74         O95   2.367   1_545  S
Tb74        O512   2.348       .  S
Tb74        O513   2.319   1_545  S
Tb74        O496   2.345   1_545  S
Tb74        O930   2.331       .  S
O75         Tb79   2.351       .  S
O76          C87   1.257       .  A
O76        Tb495   2.348       .  S
C77          O82   1.260       .  A
C77          O98   1.253       .  A
C77         C166   1.439       .  S
O78          C94   1.262       .  A
Tb79         O83   2.581       .  S
Tb79         O88   2.350       .  S
Tb79         O82   2.352       .  S
Tb79         O91   2.509       .  S
Tb79        O492   2.348   1_545  S
Tb79        O505   2.370   1_545  S
Tb79       O1329   2.334   1_445  S
O80         C502   1.262       .  A
O80        Tb490   2.345       .  S
O81          C84   1.260       .  A
O81       Tb1327   2.334       .  S
O83          C93   1.317       .  A
C84          O97   1.253       .  A
C84         C180   1.424       .  S
O85         C924   1.316       .  A
C86          O95   1.263       .  A
C86         O496   1.262       .  A
C86         C584   1.438       .  S
C87          O89   1.261       .  A
C87         C170   1.437       .  S
O89        Tb495   2.370       .  S
O90         C925   1.308       .  A
O91          C92   1.298       .  A
C92         O917   1.316   1_455  A
C93         O922   1.308   1_455  A
C94         O512   1.260       .  A
C94         C177   1.433       .  S
O96         C510   1.260       .  A
O96        Tb490   2.348       .  S
O97        Tb490   2.319       .  S
O98        Tb906   2.331   1_455  S
C99         C101   1.539   1_556  S
C99         C103   1.542       .  S
C99         C102   1.514   1_556  S
C99         C354   1.461       .  S
C100        C104   1.546       .  S
C100        C106   1.511       .  S
C100        C105   1.540       .  S
C100        C156   1.462       .  S
C101        C109   1.383   1_554  A
C101        C104   1.389       .  A
C102        C113   1.367       .  A
C102        C105   1.375       .  A
C103        C117   1.386       .  A
C103        C106   1.372   1_556  A
C104        C107   1.382       .  A
C105        C111   1.386       .  A
C106        C114   1.369       .  A
C107        N108   1.352       .  A
C107        H120   1.082       .  S
N108        C109   1.351   1_554  A
N108        C176   1.401       .  S
C109        H318   1.080       .  S
H110        C317   1.080       .  S
C111        N112   1.355       .  A
C111        H121   1.082       .  S
N112        C113   1.346       .  A
N112        C171   1.394       .  S
C113        H327   1.082   1_554  S
C114        N115   1.348       .  A
C114        H116   1.082       .  S
N115        C117   1.356   1_554  A
N115        C174   1.396       .  S
C117        H326   1.083       .  S
H118        C325   1.083       .  S
H119        C321   1.082       .  S
C122        C124   1.546       .  S
C122        C126   1.516       .  S
C122        C125   1.543       .  S
C122        C159   1.459       .  S
C123        C127   1.540       .  S
C123        C129   1.543       .  S
C123        C128   1.521       .  S
C123        C149   1.457       .  S
C124        C132   1.386       .  A
C124        C127   1.388       .  A
C125        C136   1.392       .  A
C125        C128   1.372       .  A
C126        C140   1.368       .  A
C126        C129   1.372       .  A
C127        C130   1.381       .  A
C128        C134   1.373       .  A
C129        C137   1.392       .  A
C130        N131   1.352       .  A
C130        H143   1.081       .  S
N131        C132   1.354       .  A
N131        C169   1.404       .  S
C132        H133   1.081       .  S
C134        N135   1.347       .  A
C134        H144   1.083       .  S
N135        C136   1.360       .  A
N135        C165   1.404       .  S
C136        H142   1.082       .  S
C137        N138   1.361       .  A
C137        H139   1.082       .  S
N138        C140   1.347       .  A
N138        C167   1.402       .  S
C140        H141   1.084       .  S
C145        C146   1.396       .  A
C145        C150   1.364       .  A
C145        H151   1.084       .  S
C146        C307   1.461       .  S
C146        C147   1.393       .  A
C147        C148   1.376       .  A
C147        H152   1.077       .  S
C148        C149   1.400       .  A
C148        H153   1.078       .  S
C149        C150   1.400       .  A
C150        H154   1.082       .  S
C155        C156   1.396       .  A
C155        C160   1.370       .  A
C155        H161   1.082       .  S
C156        C157   1.397       .  A
C157        C158   1.374       .  A
C157        H162   1.082       .  S
C158        C159   1.398       .  A
C158        H163   1.080       .  S
C159        C160   1.400       .  A
C160        H164   1.083       .  S
C165        C166   1.208       .  T
C167        C168   1.207       .  T
C168        C502   1.438       .  S
C169        C170   1.207       .  T
C171        C172   1.199       .  T
C173        C476   1.428       .  S
C173        C174   1.201       .  T
C175        C176   1.205       .  T
C177        C178   1.205       .  T
C179        C180   1.199       .  T
C181        C182   1.201       .  T
C183        C184   1.207       .  T
C185        C186   1.208       .  T
C187        C188   1.207       .  T
C188        N218   1.402       .  S
C189        C190   1.400       .  A
C189        C194   1.376       .  A
C189        H195   1.078       .  S
C190        C191   1.400       .  A
C191        C192   1.363       .  A
C191        H196   1.082       .  S
C192        C193   1.396       .  A
C192        H197   1.084       .  S
C193        C194   1.393       .  A
C194        H198   1.077       .  S
C199        C200   1.398       .  A
C199        C204   1.374       .  A
C199        H205   1.080       .  S
C200        C201   1.400       .  A
C201        C202   1.370       .  A
C201        H206   1.083       .  S
C202        C203   1.396       .  A
C202        H207   1.082       .  S
C203        C204   1.397       .  A
C204        H208   1.082       .  S
C209        C211   1.516       .  S
C209        C213   1.546       .  S
C209        C212   1.543       .  S
C209        C408   1.458       .  S
C210        C214   1.543   1_556  S
C210        C216   1.540   1_556  S
C210        C215   1.521   1_556  S
C210        C398   1.456       .  S
C211        C219   1.368       .  A
C212        C223   1.392       .  A
C213        C227   1.386       .  A
C214        C217   1.392   1_554  A
C215        C221   1.373       .  A
C216        C224   1.381       .  A
C217        N218   1.361   1_556  A
C217        H230   1.082       .  S
C219        H220   1.084       .  S
C221        H231   1.083   1_554  S
N222        C223   1.359       .  A
N222        C393   1.403       .  S
C223        H229   1.082       .  S
C224        N225   1.352       .  A
C224        H226   1.081   1_554  S
N225        C392   1.404       .  S
C227        H228   1.081       .  S
C232        C234   1.542       .  S
C232        C236   1.539       .  S
C232        C235   1.514       .  S
C232        C401   1.460       .  S
C233        C237   1.511       .  S
C233        C239   1.545       .  S
C233        C238   1.540       .  S
C233        C411   1.462       .  S
C234        C242   1.386       .  A
C234        C237   1.372       .  A
C235        C246   1.367       .  A
C235        C238   1.375       .  A
C236        C250   1.383       .  A
C236        C239   1.389       .  A
C237        C240   1.369       .  A
C238        C244   1.386       .  A
C239        C247   1.382       .  A
C240        N241   1.348       .  A
C240        H253   1.082       .  S
N241        C242   1.356       .  A
N241        C390   1.396       .  S
C242        H243   1.083       .  S
C244        N245   1.355       .  A
C244        H254   1.082       .  S
N245        C246   1.346       .  A
N245        C387   1.394       .  S
C246        H252   1.082       .  S
C247        N248   1.352       .  A
C247        H249   1.082       .  S
N248        C250   1.351       .  A
N248        C386   1.400       .  S
C250        H251   1.080       .  S
C255        O257   1.262       .  A
C255        C395   1.438       .  S
Tb256       O486   2.348       .  S
Tb256       O695   2.351   1_545  S
Tb256       O678   2.352   1_545  S
Tb256       O267   2.581       .  S
Tb256      O1112   2.334       .  S
Tb256       O277   2.350   1_545  S
O257       Tb261   2.345       .  S
O258        C269   1.260       .  A
O258       Tb677   2.348       .  S
C259        O264   1.253       .  A
C259        O280   1.260       .  A
C259        C380   1.424       .  S
O260        C276   1.261       .  A
Tb261       O674   2.348   1_545  S
Tb261       O264   2.319       .  S
Tb261       O687   2.359   1_545  S
Tb261       O273   2.535       .  S
Tb261      O1511   2.331   1_445  S
O262        C684   1.257       .  A
O262       Tb672   2.352       .  S
O263        C266   1.253       .  A
O263      Tb1509   2.331       .  S
O265        C275   1.316       .  A
C266        O279   1.260       .  A
C266        C394   1.438       .  S
O267       C1106   1.317       .  A
C268        O678   1.257       .  A
C268        O277   1.260       .  A
C268        C797   1.428       .  S
C269        O271   1.262       .  A
C269        C383   1.433       .  S
O271       Tb677   2.359       .  S
O272       C1107   1.298       .  A
O273        C274   1.308       .  A
C274       O1099   1.317   1_455  A
C274        C301   1.670       .  S
C275       O1104   1.298   1_455  A
C275        C300   1.671       .  S
C276        O694   1.257       .  A
C276        C391   1.437       .  S
O278        C692   1.257       .  A
O278       Tb464   2.348       .  S
O279       Tb672   2.351       .  S
O280      Tb1088   2.334   1_455  S
C281        O296   1.260       .  A
C281        O283   1.257       .  A
C281        C389   1.427       .  S
Tb282       O720   2.348       .  S
Tb282       O721   2.319   1_545  S
Tb282       O704   2.345   1_545  S
Tb282       O298   2.535       .  S
Tb282       O293   2.583       .  S
Tb282       O286   2.358       .  S
Tb282      O1138   2.331       .  S
Tb282       O303   2.367   1_545  S
O283       Tb287   2.351       .  S
O284        C295   1.257       .  A
O284       Tb703   2.348       .  S
C285        O290   1.260       .  A
C285        O306   1.253       .  A
C285        C374   1.439       .  S
O286        C302   1.262       .  A
Tb287       O700   2.348   1_545  S
Tb287       O291   2.581       .  S
Tb287       O296   2.350       .  S
Tb287       O290   2.352       .  S
Tb287       O713   2.370   1_545  S
Tb287       O299   2.509       .  S
Tb287      O1537   2.334   1_445  S
O288        C710   1.262       .  A
O288       Tb698   2.345       .  S
O289        C292   1.260       .  A
O289      Tb1535   2.334       .  S
O291        C301   1.317       .  A
C292        O305   1.253       .  A
C292        C388   1.424       .  S
O293       C1132   1.316       .  A
C294        O704   1.262       .  A
C294        O303   1.263       .  A
C294        C792   1.438       .  S
C295        O297   1.261       .  A
C295        C378   1.437       .  S
O297       Tb703   2.370       .  S
O298       C1133   1.308       .  A
O299        C300   1.298       .  A
C300       O1125   1.316   1_455  A
C301       O1130   1.308   1_455  A
C302        O720   1.260       .  A
C302        C385   1.433       .  S
O304        C718   1.260       .  A
O304       Tb698   2.348       .  S
O305       Tb698   2.319       .  S
O306      Tb1114   2.331   1_455  S
C307        C309   1.539       .  S
C307        C311   1.542       .  S
C307        C310   1.514       .  S
C308        C312   1.546       .  S
C308        C314   1.511       .  S
C308        C313   1.540       .  S
C308        C364   1.462       .  S
C309        C317   1.383       .  A
C309        C312   1.389       .  A
C310        C321   1.367       .  A
C310        C313   1.375       .  A
C311        C325   1.386       .  A
C311        C314   1.372       .  A
C312        C315   1.382       .  A
C313        C319   1.386       .  A
C314        C322   1.369       .  A
C315        N316   1.352       .  A
C315        H328   1.082       .  S
N316        C317   1.351       .  A
N316        C384   1.401       .  S
C319        N320   1.355       .  A
C319        H329   1.082       .  S
N320        C321   1.346       .  A
N320        C379   1.394       .  S
C322        N323   1.348       .  A
C322        H324   1.082       .  S
N323        C325   1.356       .  A
N323        C382   1.396       .  S
C330        C332   1.546       .  S
C330        C334   1.516       .  S
C330        C333   1.543       .  S
C330        C367   1.459       .  S
C331        C335   1.540       .  S
C331        C337   1.543       .  S
C331        C336   1.521       .  S
C331        C357   1.457       .  S
C332        C340   1.386       .  A
C332        C335   1.388       .  A
C333        C344   1.392       .  A
C333        C336   1.372       .  A
C334        C348   1.368       .  A
C334        C337   1.372       .  A
C335        C338   1.381       .  A
C336        C342   1.373       .  A
C337        C345   1.392       .  A
C338        N339   1.352       .  A
C338        H351   1.081       .  S
N339        C340   1.354       .  A
N339        C377   1.404       .  S
C340        H341   1.081       .  S
C342        N343   1.347       .  A
C342        H352   1.083       .  S
N343        C344   1.360       .  A
N343        C373   1.404       .  S
C344        H350   1.082       .  S
C345        N346   1.361       .  A
C345        H347   1.082       .  S
N346        C348   1.347       .  A
N346        C375   1.402       .  S
C348        H349   1.084       .  S
C353        C354   1.396       .  A
C353        C358   1.364       .  A
C353        H359   1.084       .  S
C354        C355   1.393       .  A
C355        C356   1.376       .  A
C355        H360   1.077       .  S
C356        C357   1.400       .  A
C356        H361   1.078       .  S
C357        C358   1.400       .  A
C358        H362   1.082       .  S
C363        C364   1.396       .  A
C363        C368   1.370       .  A
C363        H369   1.082       .  S
C364        C365   1.397       .  A
C365        C366   1.374       .  A
C365        H370   1.082       .  S
C366        C367   1.398       .  A
C366        H371   1.080       .  S
C367        C368   1.400       .  A
C368        H372   1.083       .  S
C373        C374   1.208       .  T
C375        C376   1.207       .  T
C376        C710   1.438       .  S
C377        C378   1.207       .  T
C379        C380   1.199       .  T
C381        C684   1.428       .  S
C381        C382   1.201       .  T
C383        C384   1.205       .  T
C385        C386   1.205       .  T
C387        C388   1.199       .  T
C389        C390   1.201       .  T
C391        C392   1.207       .  T
C393        C394   1.208       .  T
C395        C396   1.207       .  T
C397        C398   1.400       .  A
C397        C402   1.376       .  A
C397        H403   1.078       .  S
C398        C399   1.400       .  A
C399        C400   1.363       .  A
C399        H404   1.082       .  S
C400        C401   1.396       .  A
C400        H405   1.084       .  S
C401        C402   1.393       .  A
C402        H406   1.077       .  S
C407        C408   1.398       .  A
C407        C412   1.374       .  A
C407        H413   1.080       .  S
C408        C409   1.400       .  A
C409        C410   1.370       .  A
C409        H414   1.083       .  S
C410        C411   1.396       .  A
C410        H415   1.082       .  S
C411        C412   1.397       .  A
C412        H416   1.082       .  S
C417        C419   1.516       .  S
C417        C421   1.546       .  S
C417        C420   1.543       .  S
C417        C616   1.458       .  S
C418        C422   1.543       .  S
C418        C424   1.540       .  S
C418        C423   1.521       .  S
C418        C606   1.456       .  S
C419        C427   1.368       .  A
C419        C630   1.372       .  A
C420        C431   1.392       .  A
C420        C631   1.372       .  A
C421        C435   1.386       .  A
C421        C632   1.388       .  A
C422        C627   1.372       .  A
C422        C425   1.392       .  A
C423        C628   1.372       .  A
C423        C429   1.373       .  A
C424        C629   1.388       .  A
C424        C432   1.381       .  A
C425        N426   1.361       .  A
C425        H438   1.082       .  S
N426        C635   1.347       .  A
N426        C812   1.402       .  S
C427        N634   1.347       .  A
C427        H428   1.084       .  S
C429        N638   1.347       .  A
C429        H439   1.083       .  S
N430        C637   1.347       .  A
N430        C431   1.359       .  A
N430        C601   1.403       .  S
C431        H437   1.082       .  S
C432        N433   1.352       .  A
C432        H434   1.081       .  S
N433        C643   1.354       .  A
N433        C600   1.404       .  S
C435        N641   1.354       .  A
C435        H436   1.081       .  S
C440        C442   1.542       .  S
C440        C444   1.539       .  S
C440        C443   1.514       .  S
C440        C609   1.460       .  S
C441        C445   1.511       .  S
C441        C447   1.545       .  S
C441        C446   1.540       .  S
C441        C619   1.462       .  S
C442        C450   1.386       .  A
C442        C445   1.372       .  A
C443        C454   1.367       .  A
C443        C446   1.375       .  A
C444        C458   1.383       .  A
C444        C447   1.389       .  A
C445        C448   1.369       .  A
C446        C452   1.386       .  A
C447        C455   1.382       .  A
C448        N449   1.348       .  A
C448        H461   1.082       .  S
N449        C450   1.356       .  A
N449        C598   1.396       .  S
C450        H451   1.083       .  S
C452        N453   1.355       .  A
C452        H462   1.082       .  S
N453        C454   1.346       .  A
N453        C595   1.394       .  S
C454        H460   1.082       .  S
C455        N456   1.352       .  A
C455        H457   1.082       .  S
N456        C458   1.351       .  A
N456        C594   1.400       .  S
C458        H459   1.080       .  S
C463        O686   1.263   1_554  A
C463        O465   1.262       .  A
C463        C603   1.438       .  S
Tb464       O688   2.509   1_554  S
Tb464       O475   2.581       .  S
Tb464       O676   2.370       .  S
Tb464      O1320   2.334       .  S
Tb464       O485   2.350       .  S
O465       Tb469   2.345       .  S
O466        C477   1.260       .  A
C467        O472   1.253       .  A
C467        O488   1.260       .  A
C467        C588   1.424       .  S
O468        C484   1.261       .  A
O468       Tb672   2.370       .  S
Tb469       O681   2.583   1_554  S
Tb469       O686   2.367   1_554  S
Tb469       O472   2.319       .  S
Tb469       O481   2.535       .  S
Tb469       O887   2.331   1_455  S
O471        C474   1.253       .  A
O471       Tb885   2.331   1_565  S
O473        C483   1.316       .  A
O473       Tb677   2.583       .  S
C474        O487   1.260       .  A
C474        C602   1.438       .  S
O475       C1314   1.317       .  A
C476        O485   1.260       .  A
C477        O479   1.262       .  A
C477        C591   1.433       .  S
O478        C671   1.263       .  A
O478       Tb677   2.367       .  S
O480       C1315   1.298       .  A
O480       Tb672   2.509       .  S
O481        C482   1.308       .  A
C482       O1307   1.317   1_455  A
C482        C509   1.670       .  S
C483       O1312   1.298   1_455  A
C483        C508   1.671       .  S
C484        C599   1.437       .  S
O488      Tb1296   2.334   1_455  S
C489        O504   1.260       .  A
C489        O491   1.257       .  A
C489        C597   1.427       .  S
Tb490       O506   2.535       .  S
Tb490       O501   2.583       .  S
Tb490       O494   2.358       .  S
Tb490      O1346   2.331       .  S
Tb490       O511   2.367       .  S
O491       Tb495   2.351       .  S
O492        C503   1.257       .  A
C493        O498   1.260       .  A
C493        O514   1.253       .  A
C493        C582   1.439       .  S
O494        C510   1.262       .  A
Tb495       O499   2.581       .  S
Tb495       O504   2.350       .  S
Tb495       O498   2.352       .  S
Tb495       O507   2.509       .  S
Tb495       O913   2.334   1_455  S
O497        C500   1.260       .  A
O497       Tb911   2.334   1_565  S
O499        C509   1.317       .  A
C500        O513   1.253       .  A
C500        C596   1.424       .  S
O501       C1340   1.316       .  A
C502        O511   1.263       .  A
C503        O505   1.261       .  A
C503        C586   1.437       .  S
O506       C1341   1.308       .  A
O507        C508   1.298       .  A
C508       O1333   1.316   1_455  A
C509       O1338   1.308   1_455  A
C510        C593   1.433       .  S
O514      Tb1322   2.331   1_455  S
C515        C517   1.539   1_556  S
C515        C519   1.542       .  S
C515        C518   1.514   1_556  S
C515        C770   1.461       .  S
C516        C520   1.546       .  S
C516        C522   1.511       .  S
C516        C521   1.540       .  S
C516        C572   1.462       .  S
C517        C525   1.383   1_554  A
C517        C520   1.389       .  A
C518        C529   1.367       .  A
C518        C521   1.375       .  A
C519        C533   1.386       .  A
C519        C522   1.372   1_556  A
C520        C523   1.382       .  A
C521        C527   1.386       .  A
C522        C530   1.369       .  A
C523        N524   1.352       .  A
C523        H536   1.082       .  S
N524        C525   1.351   1_554  A
N524        C592   1.401       .  S
C525        H734   1.080       .  S
H526        C733   1.080       .  S
C527        N528   1.355       .  A
C527        H537   1.082       .  S
N528        C529   1.346       .  A
N528        C587   1.394       .  S
C529        H743   1.082   1_554  S
C530        N531   1.348       .  A
C530        H532   1.082       .  S
N531        C533   1.356   1_554  A
N531        C590   1.396       .  S
C533        H742   1.083       .  S
H534        C741   1.083       .  S
H535        C737   1.082       .  S
C538        C540   1.546       .  S
C538        C542   1.516       .  S
C538        C541   1.543       .  S
C538        C575   1.459       .  S
C539        C543   1.540       .  S
C539        C545   1.543       .  S
C539        C544   1.521       .  S
C539        C565   1.457       .  S
C540        C548   1.386       .  A
C540        C543   1.388       .  A
C541        C552   1.392       .  A
C541        C544   1.372       .  A
C542        C556   1.368       .  A
C542        C545   1.372       .  A
C543        C546   1.381       .  A
C544        C550   1.373       .  A
C545        C553   1.392       .  A
C546        N547   1.352       .  A
C546        H559   1.081       .  S
N547        C548   1.354       .  A
N547        C585   1.404       .  S
C548        H549   1.081       .  S
C550        N551   1.347       .  A
C550        H560   1.083       .  S
N551        C552   1.360       .  A
N551        C581   1.404       .  S
C552        H558   1.082       .  S
C553        N554   1.361       .  A
C553        H555   1.082       .  S
N554        C556   1.347       .  A
N554        C583   1.402       .  S
C556        H557   1.084       .  S
C561        C562   1.396       .  A
C561        C566   1.364       .  A
C561        H567   1.084       .  S
C562        C723   1.461       .  S
C562        C563   1.393       .  A
C563        C564   1.376       .  A
C563        H568   1.077       .  S
C564        C565   1.400       .  A
C564        H569   1.078       .  S
C565        C566   1.400       .  A
C566        H570   1.082       .  S
C571        C572   1.396       .  A
C571        C576   1.370       .  A
C571        H577   1.082       .  S
C572        C573   1.397       .  A
C573        C574   1.374       .  A
C573        H578   1.082       .  S
C574        C575   1.398       .  A
C574        H579   1.080       .  S
C575        C576   1.400       .  A
C576        H580   1.082       .  S
C581        C582   1.208       .  T
C583        C584   1.207       .  T
C585        C586   1.207       .  T
C587        C588   1.199       .  T
C589        C590   1.201       .  T
C591        C592   1.205       .  T
C593        C594   1.205       .  T
C595        C596   1.199       .  T
C597        C598   1.201       .  T
C599        C600   1.207       .  T
C601        C602   1.208       .  T
C603        C604   1.207       .  T
C604        N634   1.402       .  S
C605        C606   1.400       .  A
C605        C610   1.376       .  A
C605        H611   1.078       .  S
C606        C607   1.400       .  A
C607        C608   1.363       .  A
C607        H612   1.082       .  S
C608        C609   1.396       .  A
C608        H613   1.084       .  S
C609        C610   1.393       .  A
C610        H614   1.077       .  S
C615        C616   1.398       .  A
C615        C620   1.374       .  A
C615        H621   1.080       .  S
C616        C617   1.400       .  A
C617        C618   1.370       .  A
C617        H622   1.083       .  S
C618        C619   1.396       .  A
C618        H623   1.082       .  S
C619        C620   1.397       .  A
C620        H624   1.082       .  S
C625        C627   1.516       .  S
C625        C629   1.546       .  S
C625        C628   1.543       .  S
C625        C824   1.458       .  S
C626        C630   1.543   1_556  S
C626        C632   1.540   1_556  S
C626        C631   1.521   1_556  S
C626        C814   1.456       .  S
C627        C635   1.368       .  A
C628        C639   1.392       .  A
C629        C643   1.386       .  A
C630        C633   1.392   1_554  A
C631        C637   1.373       .  A
C632        C640   1.381       .  A
C633        N634   1.361   1_556  A
C633        H646   1.082       .  S
C635        H636   1.084       .  S
C637        H647   1.083   1_554  S
N638        C639   1.359       .  A
N638        C809   1.403       .  S
C639        H645   1.082       .  S
C640        N641   1.352       .  A
C640        H642   1.081   1_554  S
N641        C808   1.404       .  S
C643        H644   1.081       .  S
C648        C650   1.542       .  S
C648        C652   1.539       .  S
C648        C651   1.514       .  S
C648        C817   1.460       .  S
C649        C653   1.511       .  S
C649        C655   1.545       .  S
C649        C654   1.540       .  S
C649        C827   1.462       .  S
C650        C658   1.386       .  A
C650        C653   1.372       .  A
C651        C662   1.367       .  A
C651        C654   1.375       .  A
C652        C666   1.383       .  A
C652        C655   1.389       .  A
C653        C656   1.369       .  A
C654        C660   1.386       .  A
C655        C663   1.382       .  A
C656        N657   1.348       .  A
C656        H669   1.082       .  S
N657        C658   1.356       .  A
N657        C806   1.396       .  S
C658        H659   1.083       .  S
C660        N661   1.355       .  A
C660        H670   1.082       .  S
N661        C662   1.346       .  A
N661        C803   1.394       .  S
C662        H668   1.082       .  S
C663        N664   1.352       .  A
C663        H665   1.082       .  S
N664        C666   1.351       .  A
N664        C802   1.400       .  S
C666        H667   1.080       .  S
C671        O673   1.262       .  A
C671        C811   1.438       .  S
Tb672       O683   2.581       .  S
Tb672      O1528   2.334       .  S
Tb672       O693   2.350       .  S
O673       Tb677   2.345       .  S
O674        C685   1.260       .  A
C675        O680   1.253       .  A
C675        O696   1.260       .  A
C675        C796   1.424       .  S
O676        C692   1.261       .  A
Tb677       O680   2.319       .  S
Tb677       O689   2.535       .  S
Tb677      O1095   2.331   1_455  S
O679        C682   1.253       .  A
O679      Tb1093   2.331   1_565  S
O681        C691   1.316       .  A
C682        O695   1.260       .  A
C682        C810   1.438       .  S
O683       C1522   1.317       .  A
C684        O693   1.260       .  A
C685        O687   1.262       .  A
C685        C799   1.433       .  S
O688       C1523   1.298       .  A
O689        C690   1.308       .  A
C690       O1515   1.317   1_455  A
C690        C717   1.670       .  S
C691       O1520   1.298   1_455  A
C691        C716   1.671       .  S
C692        C807   1.437       .  S
O696      Tb1504   2.334   1_455  S
C697        O712   1.260       .  A
C697        O699   1.257       .  A
C697        C805   1.427       .  S
Tb698       O714   2.535       .  S
Tb698       O709   2.583       .  S
Tb698       O702   2.358       .  S
Tb698      O1554   2.331       .  S
Tb698       O719   2.367       .  S
O699       Tb703   2.351       .  S
O700        C711   1.257       .  A
C701        O706   1.260       .  A
C701        O722   1.253       .  A
C701        C790   1.439       .  S
O702        C718   1.262       .  A
Tb703       O707   2.581       .  S
Tb703       O712   2.350       .  S
Tb703       O706   2.352       .  S
Tb703       O715   2.509       .  S
Tb703      O1121   2.334   1_455  S
O705        C708   1.260       .  A
O705      Tb1119   2.334   1_565  S
O707        C717   1.317       .  A
C708        O721   1.253       .  A
C708        C804   1.424       .  S
O709       C1548   1.316       .  A
C710        O719   1.263       .  A
C711        O713   1.261       .  A
C711        C794   1.437       .  S
O714       C1549   1.308       .  A
O715        C716   1.298       .  A
C716       O1541   1.316   1_455  A
C717       O1546   1.308   1_455  A
C718        C801   1.433       .  S
O722      Tb1530   2.331   1_455  S
C723        C725   1.539       .  S
C723        C727   1.542       .  S
C723        C726   1.514       .  S
C724        C728   1.546       .  S
C724        C730   1.511       .  S
C724        C729   1.540       .  S
C724        C780   1.462       .  S
C725        C733   1.383       .  A
C725        C728   1.389       .  A
C726        C737   1.367       .  A
C726        C729   1.375       .  A
C727        C741   1.386       .  A
C727        C730   1.372       .  A
C728        C731   1.382       .  A
C729        C735   1.386       .  A
C730        C738   1.369       .  A
C731        N732   1.352       .  A
C731        H744   1.082       .  S
N732        C733   1.351       .  A
N732        C800   1.401       .  S
C735        N736   1.355       .  A
C735        H745   1.082       .  S
N736        C737   1.346       .  A
N736        C795   1.394       .  S
C738        N739   1.348       .  A
C738        H740   1.082       .  S
N739        C741   1.356       .  A
N739        C798   1.396       .  S
C746        C748   1.546       .  S
C746        C750   1.516       .  S
C746        C749   1.543       .  S
C746        C783   1.459       .  S
C747        C751   1.540       .  S
C747        C753   1.543       .  S
C747        C752   1.521       .  S
C747        C773   1.457       .  S
C748        C756   1.386       .  A
C748        C751   1.388       .  A
C749        C760   1.392       .  A
C749        C752   1.372       .  A
C750        C764   1.368       .  A
C750        C753   1.372       .  A
C751        C754   1.381       .  A
C752        C758   1.373       .  A
C753        C761   1.392       .  A
C754        N755   1.352       .  A
C754        H767   1.081       .  S
N755        C756   1.354       .  A
N755        C793   1.404       .  S
C756        H757   1.081       .  S
C758        N759   1.347       .  A
C758        H768   1.083       .  S
N759        C760   1.360       .  A
N759        C789   1.404       .  S
C760        H766   1.082       .  S
C761        N762   1.361       .  A
C761        H763   1.082       .  S
N762        C764   1.347       .  A
N762        C791   1.402       .  S
C764        H765   1.084       .  S
C769        C770   1.396       .  A
C769        C774   1.364       .  A
C769        H775   1.084       .  S
C770        C771   1.393       .  A
C771        C772   1.376       .  A
C771        H776   1.077       .  S
C772        C773   1.400       .  A
C772        H777   1.078       .  S
C773        C774   1.400       .  A
C774        H778   1.082       .  S
C779        C780   1.396       .  A
C779        C784   1.370       .  A
C779        H785   1.082       .  S
C780        C781   1.397       .  A
C781        C782   1.374       .  A
C781        H786   1.082       .  S
C782        C783   1.398       .  A
C782        H787   1.080       .  S
C783        C784   1.400       .  A
C784        H788   1.083       .  S
C789        C790   1.208       .  T
C791        C792   1.207       .  T
C793        C794   1.207       .  T
C795        C796   1.199       .  T
C797        C798   1.201       .  T
C799        C800   1.205       .  T
C801        C802   1.205       .  T
C803        C804   1.199       .  T
C805        C806   1.201       .  T
C807        C808   1.207       .  T
C809        C810   1.208       .  T
C811        C812   1.207       .  T
C813        C814   1.400       .  A
C813        C818   1.376       .  A
C813        H819   1.078       .  S
C814        C815   1.400       .  A
C815        C816   1.363       .  A
C815        H820   1.082       .  S
C816        C817   1.396       .  A
C816        H821   1.084       .  S
C817        C818   1.393       .  A
C818        H822   1.077       .  S
C823        C824   1.398       .  A
C823        C828   1.374       .  A
C823        H829   1.080       .  S
C824        C825   1.400       .  A
C825        C826   1.370       .  A
C825        H830   1.083       .  S
C826        C827   1.396       .  A
C826        H831   1.082       .  S
C827        C828   1.397       .  A
C828        H832   1.082       .  S
C833        C835   1.516       .  S
C833        C837   1.546       .  S
C833        C836   1.543       .  S
C833       C1032   1.458       .  S
C834        C838   1.543       .  S
C834        C840   1.540       .  S
C834        C839   1.521       .  S
C834       C1022   1.456       .  S
C835        C843   1.368       .  A
C835       C1046   1.372       .  A
C836        C847   1.392       .  A
C836       C1047   1.372       .  A
C837        C851   1.386       .  A
C837       C1048   1.388       .  A
C838       C1043   1.372       .  A
C838        C841   1.392       .  A
C839       C1044   1.372       .  A
C839        C845   1.373       .  A
C840       C1045   1.388       .  A
C840        C848   1.381       .  A
C841        N842   1.361       .  A
C841        H854   1.082       .  S
N842       C1051   1.347       .  A
N842       C1228   1.402       .  S
C843       N1050   1.347       .  A
C843        H844   1.084       .  S
C845       N1054   1.347       .  A
C845        H855   1.083       .  S
N846       C1053   1.347       .  A
N846        C847   1.359       .  A
N846       C1017   1.403       .  S
C847        H853   1.082       .  S
C848        N849   1.352       .  A
C848        H850   1.081       .  S
N849       C1059   1.354       .  A
N849       C1016   1.404       .  S
C851       N1057   1.354       .  A
C851        H852   1.081       .  S
C856        C858   1.542       .  S
C856        C860   1.539       .  S
C856        C859   1.514       .  S
C856       C1025   1.460       .  S
C857        C861   1.511       .  S
C857        C863   1.545       .  S
C857        C862   1.540       .  S
C857       C1035   1.462       .  S
C858        C866   1.386       .  A
C858        C861   1.372       .  A
C859        C870   1.367       .  A
C859        C862   1.375       .  A
C860        C874   1.383       .  A
C860        C863   1.389       .  A
C861        C864   1.369       .  A
C862        C868   1.386       .  A
C863        C871   1.382       .  A
C864        N865   1.348       .  A
C864        H877   1.082       .  S
N865        C866   1.356       .  A
N865       C1014   1.396       .  S
C866        H867   1.083       .  S
C868        N869   1.355       .  A
C868        H878   1.082       .  S
N869        C870   1.346       .  A
N869       C1011   1.394       .  S
C870        H876   1.082       .  S
C871        N872   1.352       .  A
C871        H873   1.082       .  S
N872        C874   1.351       .  A
N872       C1010   1.400       .  S
C874        H875   1.080       .  S
C879       O1102   1.263   1_554  A
C879        O881   1.262       .  A
C879       C1019   1.438       .  S
Tb880      O1526   2.348       .  S
Tb880      O1319   2.351   1_545  S
Tb880      O1302   2.352   1_544  S
Tb880      O1104   2.509   1_554  S
Tb880       O891   2.581       .  S
Tb880      O1092   2.370       .  S
Tb880       O901   2.350   1_545  S
O881       Tb885   2.345       .  S
O882        C893   1.260       .  A
O882      Tb1301   2.348       .  S
C883        O888   1.253       .  A
C883        O904   1.260       .  A
C883       C1004   1.424       .  S
O884        C900   1.261       .  A
O884      Tb1088   2.370       .  S
Tb885      O1298   2.348   1_545  S
Tb885      O1097   2.583   1_554  S
Tb885      O1102   2.367   1_554  S
Tb885       O888   2.319       .  S
Tb885      O1311   2.359   1_545  S
Tb885       O897   2.535       .  S
O886       C1308   1.257   1_556  A
O886      Tb1296   2.352   1_556  S
O887        C890   1.253       .  A
O889        C899   1.316       .  A
O889      Tb1093   2.583       .  S
C890        O903   1.260       .  A
C890       C1018   1.438       .  S
C892       O1302   1.257   1_554  A
C892        O901   1.260       .  A
C892       C1421   1.428       .  S
C893        O895   1.262       .  A
C893       C1007   1.433       .  S
O894       C1087   1.263       .  A
O894      Tb1093   2.367       .  S
O895      Tb1301   2.359       .  S
O896      Tb1088   2.509       .  S
O897        C898   1.308       .  A
C898        C925   1.670       .  S
C899        C924   1.671       .  S
C900       O1318   1.257       .  A
C900       C1015   1.437       .  S
O902       C1316   1.257       .  A
O902      Tb1504   2.348       .  S
O903      Tb1296   2.351       .  S
C905        O920   1.260       .  A
C905        O907   1.257       .  A
C905       C1013   1.427       .  S
Tb906      O1344   2.348       .  S
Tb906      O1345   2.319   1_545  S
Tb906      O1328   2.345   1_545  S
Tb906       O922   2.535       .  S
Tb906       O917   2.583       .  S
Tb906       O910   2.358       .  S
Tb906       O927   2.367   1_545  S
O907       Tb911   2.351       .  S
O908        C919   1.257       .  A
O908      Tb1327   2.348       .  S
C909        O914   1.260       .  A
C909        O930   1.253       .  A
C909        C998   1.439       .  S
O910        C926   1.262       .  A
Tb911      O1324   2.348   1_545  S
Tb911       O915   2.581       .  S
Tb911       O920   2.350       .  S
Tb911       O914   2.352       .  S
Tb911      O1337   2.370   1_545  S
Tb911       O923   2.509       .  S
O912       C1334   1.262       .  A
O912      Tb1322   2.345       .  S
O913        C916   1.260       .  A
O915        C925   1.317       .  A
C916        O929   1.253       .  A
C916       C1012   1.424       .  S
C918       O1328   1.262       .  A
C918        O927   1.263       .  A
C918       C1416   1.438       .  S
C919        O921   1.261       .  A
C919       C1002   1.437       .  S
O921      Tb1327   2.370       .  S
O923        C924   1.298       .  A
C926       O1344   1.260       .  A
C926       C1009   1.433       .  S
O928       C1342   1.260       .  A
O928      Tb1322   2.348       .  S
O929      Tb1322   2.319       .  S
C931        C933   1.539   1_556  S
C931        C935   1.542       .  S
C931        C934   1.514   1_556  S
C931       C1186   1.461       .  S
C932        C936   1.546       .  S
C932        C938   1.511       .  S
C932        C937   1.540       .  S
C932        C988   1.462       .  S
C933        C941   1.383   1_554  A
C933        C936   1.389       .  A
C934        C945   1.367       .  A
C934        C937   1.375       .  A
C935        C949   1.386       .  A
C935        C938   1.372   1_556  A
C936        C939   1.382       .  A
C937        C943   1.386       .  A
C938        C946   1.369       .  A
C939        N940   1.352       .  A
C939        H952   1.082       .  S
N940        C941   1.351   1_554  A
N940       C1008   1.401       .  S
C941       H1150   1.080       .  S
H942       C1149   1.080       .  S
C943        N944   1.355       .  A
C943        H953   1.082       .  S
N944        C945   1.346       .  A
N944       C1003   1.394       .  S
C945       H1159   1.082   1_554  S
C946        N947   1.348       .  A
C946        H948   1.082       .  S
N947        C949   1.356   1_554  A
N947       C1006   1.396       .  S
C949       H1158   1.083       .  S
H950       C1157   1.083       .  S
H951       C1153   1.082       .  S
C954        C956   1.546       .  S
C954        C958   1.516       .  S
C954        C957   1.543       .  S
C954        C991   1.459       .  S
C955        C959   1.540       .  S
C955        C961   1.543       .  S
C955        C960   1.521       .  S
C955        C981   1.457       .  S
C956        C964   1.386       .  A
C956        C959   1.388       .  A
C957        C968   1.392       .  A
C957        C960   1.372       .  A
C958        C972   1.368       .  A
C958        C961   1.372       .  A
C959        C962   1.381       .  A
C960        C966   1.373       .  A
C961        C969   1.392       .  A
C962        N963   1.352       .  A
C962        H975   1.081       .  S
N963        C964   1.354       .  A
N963       C1001   1.404       .  S
C964        H965   1.081       .  S
C966        N967   1.347       .  A
C966        H976   1.083       .  S
N967        C968   1.360       .  A
N967        C997   1.404       .  S
C968        H974   1.082       .  S
C969        N970   1.361       .  A
C969        H971   1.082       .  S
N970        C972   1.347       .  A
N970        C999   1.402       .  S
C972        H973   1.084       .  S
C977        C978   1.396       .  A
C977        C982   1.364       .  A
C977        H983   1.084       .  S
C978       C1139   1.461       .  S
C978        C979   1.393       .  A
C979        C980   1.376       .  A
C979        H984   1.077       .  S
C980        C981   1.400       .  A
C980        H985   1.078       .  S
C981        C982   1.400       .  A
C982        H986   1.082       .  S
C987        C988   1.396       .  A
C987        C992   1.370       .  A
C987        H993   1.082       .  S
C988        C989   1.397       .  A
C989        C990   1.374       .  A
C989        H994   1.082       .  S
C990        C991   1.398       .  A
C990        H995   1.080       .  S
C991        C992   1.400       .  A
C992        H996   1.082       .  S
C997        C998   1.208       .  T
C999       C1000   1.207       .  T
C1000      C1334   1.438       .  S
C1001      C1002   1.207       .  T
C1003      C1004   1.199       .  T
C1005      C1308   1.428       .  S
C1005      C1006   1.201       .  T
C1007      C1008   1.205       .  T
C1009      C1010   1.205       .  T
C1011      C1012   1.199       .  T
C1013      C1014   1.201       .  T
C1015      C1016   1.207       .  T
C1017      C1018   1.208       .  T
C1019      C1020   1.207       .  T
C1020      N1050   1.402       .  S
C1021      C1022   1.400       .  A
C1021      C1026   1.376       .  A
C1021      H1027   1.078       .  S
C1022      C1023   1.400       .  A
C1023      C1024   1.363       .  A
C1023      H1028   1.082       .  S
C1024      C1025   1.396       .  A
C1024      H1029   1.084       .  S
C1025      C1026   1.393       .  A
C1026      H1030   1.077       .  S
C1031      C1032   1.398       .  A
C1031      C1036   1.374       .  A
C1031      H1037   1.080       .  S
C1032      C1033   1.400       .  A
C1033      C1034   1.370       .  A
C1033      H1038   1.083       .  S
C1034      C1035   1.396       .  A
C1034      H1039   1.082       .  S
C1035      C1036   1.397       .  A
C1036      H1040   1.082       .  S
C1041      C1043   1.516       .  S
C1041      C1045   1.546       .  S
C1041      C1044   1.543       .  S
C1041      C1240   1.458       .  S
C1042      C1046   1.543   1_556  S
C1042      C1048   1.540   1_556  S
C1042      C1047   1.521   1_556  S
C1042      C1230   1.456       .  S
C1043      C1051   1.368       .  A
C1044      C1055   1.392       .  A
C1045      C1059   1.386       .  A
C1046      C1049   1.392   1_554  A
C1047      C1053   1.373       .  A
C1048      C1056   1.381       .  A
C1049      N1050   1.361   1_556  A
C1049      H1062   1.082       .  S
C1051      H1052   1.084       .  S
C1053      H1063   1.083   1_554  S
N1054      C1055   1.359       .  A
N1054      C1225   1.403       .  S
C1055      H1061   1.082       .  S
C1056      N1057   1.352       .  A
C1056      H1058   1.081   1_554  S
N1057      C1224   1.404       .  S
C1059      H1060   1.081       .  S
C1064      C1066   1.542       .  S
C1064      C1068   1.539       .  S
C1064      C1067   1.514       .  S
C1064      C1233   1.460       .  S
C1065      C1069   1.511       .  S
C1065      C1071   1.545       .  S
C1065      C1070   1.540       .  S
C1065      C1243   1.462       .  S
C1066      C1074   1.386       .  A
C1066      C1069   1.372       .  A
C1067      C1078   1.367       .  A
C1067      C1070   1.375       .  A
C1068      C1082   1.383       .  A
C1068      C1071   1.389       .  A
C1069      C1072   1.369       .  A
C1070      C1076   1.386       .  A
C1071      C1079   1.382       .  A
C1072      N1073   1.348       .  A
C1072      H1085   1.082       .  S
N1073      C1074   1.356       .  A
N1073      C1222   1.396       .  S
C1074      H1075   1.083       .  S
C1076      N1077   1.355       .  A
C1076      H1086   1.082       .  S
N1077      C1078   1.346       .  A
N1077      C1219   1.394       .  S
C1078      H1084   1.082       .  S
C1079      N1080   1.352       .  A
C1079      H1081   1.082       .  S
N1080      C1082   1.351       .  A
N1080      C1218   1.400       .  S
C1082      H1083   1.080       .  S
C1087      O1089   1.262       .  A
C1087      C1227   1.438       .  S
Tb1088     O1318   2.348       .  S
Tb1088     O1527   2.351   1_545  S
Tb1088     O1510   2.352   1_545  S
Tb1088     O1099   2.581       .  S
Tb1088     O1109   2.350   1_545  S
O1089     Tb1093   2.345       .  S
O1090      C1101   1.260       .  A
O1090     Tb1509   2.348       .  S
C1091      O1096   1.253       .  A
C1091      O1112   1.260       .  A
C1091      C1212   1.424       .  S
O1092      C1108   1.261       .  A
Tb1093     O1506   2.348   1_545  S
Tb1093     O1096   2.319       .  S
Tb1093     O1519   2.359   1_545  S
Tb1093     O1105   2.535       .  S
O1094      C1516   1.257       .  A
O1094     Tb1504   2.352       .  S
O1095      C1098   1.253       .  A
O1097      C1107   1.316       .  A
C1098      O1111   1.260       .  A
C1098      C1226   1.438       .  S
C1100      O1510   1.257       .  A
C1100      O1109   1.260       .  A
C1100      C1629   1.428       .  S
C1101      O1103   1.262       .  A
C1101      C1215   1.433       .  S
O1103     Tb1509   2.359       .  S
O1105      C1106   1.308       .  A
C1106      C1133   1.670       .  S
C1107      C1132   1.671       .  S
C1108      O1526   1.257       .  A
C1108      C1223   1.437       .  S
O1110      C1524   1.257       .  A
O1110     Tb1296   2.348       .  S
O1111     Tb1504   2.351       .  S
C1113      O1128   1.260       .  A
C1113      O1115   1.257       .  A
C1113      C1221   1.427       .  S
Tb1114     O1552   2.348       .  S
Tb1114     O1553   2.319   1_545  S
Tb1114     O1536   2.345   1_545  S
Tb1114     O1130   2.535       .  S
Tb1114     O1125   2.583       .  S
Tb1114     O1118   2.358       .  S
Tb1114     O1135   2.367   1_545  S
O1115     Tb1119   2.351       .  S
O1116      C1127   1.257       .  A
O1116     Tb1535   2.348       .  S
C1117      O1122   1.260       .  A
C1117      O1138   1.253       .  A
C1117      C1206   1.439       .  S
O1118      C1134   1.262       .  A
Tb1119     O1532   2.348   1_545  S
Tb1119     O1123   2.581       .  S
Tb1119     O1128   2.350       .  S
Tb1119     O1122   2.352       .  S
Tb1119     O1545   2.370   1_545  S
Tb1119     O1131   2.509       .  S
O1120      C1542   1.262       .  A
O1120     Tb1530   2.345       .  S
O1121      C1124   1.260       .  A
O1123      C1133   1.317       .  A
C1124      O1137   1.253       .  A
C1124      C1220   1.424       .  S
C1126      O1536   1.262       .  A
C1126      O1135   1.263       .  A
C1126      C1624   1.438       .  S
C1127      O1129   1.261       .  A
C1127      C1210   1.437       .  S
O1129     Tb1535   2.370       .  S
O1131      C1132   1.298       .  A
C1134      O1552   1.260       .  A
C1134      C1217   1.433       .  S
O1136      C1550   1.260       .  A
O1136     Tb1530   2.348       .  S
O1137     Tb1530   2.319       .  S
C1139      C1141   1.539       .  S
C1139      C1143   1.542       .  S
C1139      C1142   1.514       .  S
C1140      C1144   1.546       .  S
C1140      C1146   1.511       .  S
C1140      C1145   1.540       .  S
C1140      C1196   1.462       .  S
C1141      C1149   1.383       .  A
C1141      C1144   1.389       .  A
C1142      C1153   1.367       .  A
C1142      C1145   1.375       .  A
C1143      C1157   1.386       .  A
C1143      C1146   1.372       .  A
C1144      C1147   1.382       .  A
C1145      C1151   1.386       .  A
C1146      C1154   1.369       .  A
C1147      N1148   1.352       .  A
C1147      H1160   1.082       .  S
N1148      C1149   1.351       .  A
N1148      C1216   1.401       .  S
C1151      N1152   1.355       .  A
C1151      H1161   1.082       .  S
N1152      C1153   1.346       .  A
N1152      C1211   1.394       .  S
C1154      N1155   1.348       .  A
C1154      H1156   1.082       .  S
N1155      C1157   1.356       .  A
N1155      C1214   1.396       .  S
C1162      C1164   1.546       .  S
C1162      C1166   1.516       .  S
C1162      C1165   1.543       .  S
C1162      C1199   1.459       .  S
C1163      C1167   1.540       .  S
C1163      C1169   1.543       .  S
C1163      C1168   1.521       .  S
C1163      C1189   1.457       .  S
C1164      C1172   1.386       .  A
C1164      C1167   1.388       .  A
C1165      C1176   1.392       .  A
C1165      C1168   1.372       .  A
C1166      C1180   1.368       .  A
C1166      C1169   1.372       .  A
C1167      C1170   1.381       .  A
C1168      C1174   1.373       .  A
C1169      C1177   1.392       .  A
C1170      N1171   1.352       .  A
C1170      H1183   1.081       .  S
N1171      C1172   1.354       .  A
N1171      C1209   1.404       .  S
C1172      H1173   1.081       .  S
C1174      N1175   1.347       .  A
C1174      H1184   1.083       .  S
N1175      C1176   1.360       .  A
N1175      C1205   1.404       .  S
C1176      H1182   1.082       .  S
C1177      N1178   1.361       .  A
C1177      H1179   1.082       .  S
N1178      C1180   1.347       .  A
N1178      C1207   1.402       .  S
C1180      H1181   1.084       .  S
C1185      C1186   1.396       .  A
C1185      C1190   1.364       .  A
C1185      H1191   1.084       .  S
C1186      C1187   1.393       .  A
C1187      C1188   1.376       .  A
C1187      H1192   1.077       .  S
C1188      C1189   1.400       .  A
C1188      H1193   1.078       .  S
C1189      C1190   1.400       .  A
C1190      H1194   1.082       .  S
C1195      C1196   1.396       .  A
C1195      C1200   1.370       .  A
C1195      H1201   1.082       .  S
C1196      C1197   1.397       .  A
C1197      C1198   1.374       .  A
C1197      H1202   1.082       .  S
C1198      C1199   1.398       .  A
C1198      H1203   1.080       .  S
C1199      C1200   1.400       .  A
C1200      H1204   1.083       .  S
C1205      C1206   1.208       .  T
C1207      C1208   1.207       .  T
C1208      C1542   1.438       .  S
C1209      C1210   1.207       .  T
C1211      C1212   1.199       .  T
C1213      C1516   1.428       .  S
C1213      C1214   1.201       .  T
C1215      C1216   1.205       .  T
C1217      C1218   1.205       .  T
C1219      C1220   1.199       .  T
C1221      C1222   1.201       .  T
C1223      C1224   1.207       .  T
C1225      C1226   1.208       .  T
C1227      C1228   1.207       .  T
C1229      C1230   1.400       .  A
C1229      C1234   1.376       .  A
C1229      H1235   1.078       .  S
C1230      C1231   1.400       .  A
C1231      C1232   1.363       .  A
C1231      H1236   1.082       .  S
C1232      C1233   1.396       .  A
C1232      H1237   1.084       .  S
C1233      C1234   1.393       .  A
C1234      H1238   1.077       .  S
C1239      C1240   1.398       .  A
C1239      C1244   1.374       .  A
C1239      H1245   1.080       .  S
C1240      C1241   1.400       .  A
C1241      C1242   1.370       .  A
C1241      H1246   1.083       .  S
C1242      C1243   1.396       .  A
C1242      H1247   1.082       .  S
C1243      C1244   1.397       .  A
C1244      H1248   1.082       .  S
C1249      C1251   1.516       .  S
C1249      C1253   1.546       .  S
C1249      C1252   1.543       .  S
C1249      C1448   1.458       .  S
C1250      C1254   1.543       .  S
C1250      C1256   1.540       .  S
C1250      C1255   1.521       .  S
C1250      C1438   1.456       .  S
C1251      C1259   1.368       .  A
C1251      C1462   1.372       .  A
C1252      C1263   1.392       .  A
C1252      C1463   1.372       .  A
C1253      C1267   1.386       .  A
C1253      C1464   1.388       .  A
C1254      C1459   1.372       .  A
C1254      C1257   1.392       .  A
C1255      C1460   1.372       .  A
C1255      C1261   1.373       .  A
C1256      C1461   1.388       .  A
C1256      C1264   1.381       .  A
C1257      N1258   1.361       .  A
C1257      H1270   1.082       .  S
N1258      C1467   1.347       .  A
N1258      C1644   1.402       .  S
C1259      N1466   1.347       .  A
C1259      H1260   1.084       .  S
C1261      N1470   1.347       .  A
C1261      H1271   1.083       .  S
N1262      C1469   1.347       .  A
N1262      C1263   1.359       .  A
N1262      C1433   1.403       .  S
C1263      H1269   1.082       .  S
C1264      N1265   1.352       .  A
C1264      H1266   1.081       .  S
N1265      C1475   1.354       .  A
N1265      C1432   1.404       .  S
C1267      N1473   1.354       .  A
C1267      H1268   1.081       .  S
C1272      C1274   1.542       .  S
C1272      C1276   1.539       .  S
C1272      C1275   1.514       .  S
C1272      C1441   1.460       .  S
C1273      C1277   1.511       .  S
C1273      C1279   1.545       .  S
C1273      C1278   1.540       .  S
C1273      C1451   1.462       .  S
C1274      C1282   1.386       .  A
C1274      C1277   1.372       .  A
C1275      C1286   1.367       .  A
C1275      C1278   1.375       .  A
C1276      C1290   1.383       .  A
C1276      C1279   1.389       .  A
C1277      C1280   1.369       .  A
C1278      C1284   1.386       .  A
C1279      C1287   1.382       .  A
C1280      N1281   1.348       .  A
C1280      H1293   1.082       .  S
N1281      C1282   1.356       .  A
N1281      C1430   1.396       .  S
C1282      H1283   1.083       .  S
C1284      N1285   1.355       .  A
C1284      H1294   1.082       .  S
N1285      C1286   1.346       .  A
N1285      C1427   1.394       .  S
C1286      H1292   1.082       .  S
C1287      N1288   1.352       .  A
C1287      H1289   1.082       .  S
N1288      C1290   1.351       .  A
N1288      C1426   1.400       .  S
C1290      H1291   1.080       .  S
C1295      O1518   1.263   1_554  A
C1295      O1297   1.262       .  A
C1295      C1435   1.438       .  S
Tb1296     O1520   2.509   1_554  S
Tb1296     O1307   2.581       .  S
Tb1296     O1508   2.370       .  S
Tb1296     O1317   2.350       .  S
O1297     Tb1301   2.345       .  S
O1298      C1309   1.260       .  A
C1299      O1304   1.253       .  A
C1299      O1320   1.260       .  A
C1299      C1420   1.424       .  S
O1300      C1316   1.261       .  A
O1300     Tb1504   2.370       .  S
Tb1301     O1513   2.583   1_554  S
Tb1301     O1518   2.367   1_554  S
Tb1301     O1304   2.319       .  S
Tb1301     O1313   2.535       .  S
O1303      C1306   1.253       .  A
O1305      C1315   1.316       .  A
O1305     Tb1509   2.583       .  S
C1306      O1319   1.260       .  A
C1306      C1434   1.438       .  S
C1308      O1317   1.260       .  A
C1309      O1311   1.262       .  A
C1309      C1423   1.433       .  S
O1310      C1503   1.263       .  A
O1310     Tb1509   2.367       .  S
O1312     Tb1504   2.509       .  S
O1313      C1314   1.308       .  A
C1314      C1341   1.670       .  S
C1315      C1340   1.671       .  S
C1316      C1431   1.437       .  S
C1321      O1336   1.260       .  A
C1321      O1323   1.257       .  A
C1321      C1429   1.427       .  S
Tb1322     O1338   2.535       .  S
Tb1322     O1333   2.583       .  S
Tb1322     O1326   2.358       .  S
Tb1322     O1343   2.367       .  S
O1323     Tb1327   2.351       .  S
O1324      C1335   1.257       .  A
C1325      O1330   1.260       .  A
C1325      O1346   1.253       .  A
C1325      C1414   1.439       .  S
O1326      C1342   1.262       .  A
Tb1327     O1331   2.581       .  S
Tb1327     O1336   2.350       .  S
Tb1327     O1330   2.352       .  S
Tb1327     O1339   2.509       .  S
O1329      C1332   1.260       .  A
O1331      C1341   1.317       .  A
C1332      O1345   1.253       .  A
C1332      C1428   1.424       .  S
C1334      O1343   1.263       .  A
C1335      O1337   1.261       .  A
C1335      C1418   1.437       .  S
O1339      C1340   1.298       .  A
C1342      C1425   1.433       .  S
C1347      C1349   1.539   1_556  S
C1347      C1351   1.542       .  S
C1347      C1350   1.514   1_556  S
C1347      C1602   1.461       .  S
C1348      C1352   1.546       .  S
C1348      C1354   1.511       .  S
C1348      C1353   1.540       .  S
C1348      C1404   1.462       .  S
C1349      C1357   1.383   1_554  A
C1349      C1352   1.389       .  A
C1350      C1361   1.367       .  A
C1350      C1353   1.375       .  A
C1351      C1365   1.386       .  A
C1351      C1354   1.372   1_556  A
C1352      C1355   1.382       .  A
C1353      C1359   1.386       .  A
C1354      C1362   1.369       .  A
C1355      N1356   1.352       .  A
C1355      H1368   1.082       .  S
N1356      C1357   1.351   1_554  A
N1356      C1424   1.401       .  S
C1357      H1566   1.080       .  S
H1358      C1565   1.080       .  S
C1359      N1360   1.355       .  A
C1359      H1369   1.082       .  S
N1360      C1361   1.346       .  A
N1360      C1419   1.394       .  S
C1361      H1575   1.082   1_554  S
C1362      N1363   1.348       .  A
C1362      H1364   1.082       .  S
N1363      C1365   1.356   1_554  A
N1363      C1422   1.396       .  S
C1365      H1574   1.083       .  S
H1366      C1573   1.083       .  S
H1367      C1569   1.082       .  S
C1370      C1372   1.546       .  S
C1370      C1374   1.516       .  S
C1370      C1373   1.543       .  S
C1370      C1407   1.459       .  S
C1371      C1375   1.540       .  S
C1371      C1377   1.543       .  S
C1371      C1376   1.521       .  S
C1371      C1397   1.457       .  S
C1372      C1380   1.386       .  A
C1372      C1375   1.388       .  A
C1373      C1384   1.392       .  A
C1373      C1376   1.372       .  A
C1374      C1388   1.368       .  A
C1374      C1377   1.372       .  A
C1375      C1378   1.381       .  A
C1376      C1382   1.373       .  A
C1377      C1385   1.392       .  A
C1378      N1379   1.352       .  A
C1378      H1391   1.081       .  S
N1379      C1380   1.354       .  A
N1379      C1417   1.404       .  S
C1380      H1381   1.081       .  S
C1382      N1383   1.347       .  A
C1382      H1392   1.083       .  S
N1383      C1384   1.360       .  A
N1383      C1413   1.404       .  S
C1384      H1390   1.082       .  S
C1385      N1386   1.361       .  A
C1385      H1387   1.082       .  S
N1386      C1388   1.347       .  A
N1386      C1415   1.402       .  S
C1388      H1389   1.084       .  S
C1393      C1394   1.396       .  A
C1393      C1398   1.364       .  A
C1393      H1399   1.084       .  S
C1394      C1555   1.461       .  S
C1394      C1395   1.393       .  A
C1395      C1396   1.376       .  A
C1395      H1400   1.077       .  S
C1396      C1397   1.400       .  A
C1396      H1401   1.078       .  S
C1397      C1398   1.400       .  A
C1398      H1402   1.082       .  S
C1403      C1404   1.396       .  A
C1403      C1408   1.370       .  A
C1403      H1409   1.082       .  S
C1404      C1405   1.397       .  A
C1405      C1406   1.374       .  A
C1405      H1410   1.082       .  S
C1406      C1407   1.398       .  A
C1406      H1411   1.080       .  S
C1407      C1408   1.400       .  A
C1408      H1412   1.082       .  S
C1413      C1414   1.208       .  T
C1415      C1416   1.207       .  T
C1417      C1418   1.207       .  T
C1419      C1420   1.199       .  T
C1421      C1422   1.201       .  T
C1423      C1424   1.205       .  T
C1425      C1426   1.205       .  T
C1427      C1428   1.199       .  T
C1429      C1430   1.201       .  T
C1431      C1432   1.207       .  T
C1433      C1434   1.208       .  T
C1435      C1436   1.207       .  T
C1436      N1466   1.402       .  S
C1437      C1438   1.400       .  A
C1437      C1442   1.376       .  A
C1437      H1443   1.078       .  S
C1438      C1439   1.400       .  A
C1439      C1440   1.363       .  A
C1439      H1444   1.082       .  S
C1440      C1441   1.396       .  A
C1440      H1445   1.084       .  S
C1441      C1442   1.393       .  A
C1442      H1446   1.077       .  S
C1447      C1448   1.398       .  A
C1447      C1452   1.374       .  A
C1447      H1453   1.080       .  S
C1448      C1449   1.400       .  A
C1449      C1450   1.370       .  A
C1449      H1454   1.083       .  S
C1450      C1451   1.396       .  A
C1450      H1455   1.082       .  S
C1451      C1452   1.397       .  A
C1452      H1456   1.082       .  S
C1457      C1459   1.516       .  S
C1457      C1461   1.546       .  S
C1457      C1460   1.543       .  S
C1457      C1656   1.458       .  S
C1458      C1462   1.543   1_556  S
C1458      C1464   1.540   1_556  S
C1458      C1463   1.521   1_556  S
C1458      C1646   1.456       .  S
C1459      C1467   1.368       .  A
C1460      C1471   1.392       .  A
C1461      C1475   1.386       .  A
C1462      C1465   1.392   1_554  A
C1463      C1469   1.373       .  A
C1464      C1472   1.381       .  A
C1465      N1466   1.361   1_556  A
C1465      H1478   1.082       .  S
C1467      H1468   1.084       .  S
C1469      H1479   1.083   1_554  S
N1470      C1471   1.359       .  A
N1470      C1641   1.403       .  S
C1471      H1477   1.082       .  S
C1472      N1473   1.352       .  A
C1472      H1474   1.081   1_554  S
N1473      C1640   1.404       .  S
C1475      H1476   1.081       .  S
C1480      C1482   1.542       .  S
C1480      C1484   1.539       .  S
C1480      C1483   1.514       .  S
C1480      C1649   1.460       .  S
C1481      C1485   1.511       .  S
C1481      C1487   1.545       .  S
C1481      C1486   1.540       .  S
C1481      C1659   1.462       .  S
C1482      C1490   1.386       .  A
C1482      C1485   1.372       .  A
C1483      C1494   1.367       .  A
C1483      C1486   1.375       .  A
C1484      C1498   1.383       .  A
C1484      C1487   1.389       .  A
C1485      C1488   1.369       .  A
C1486      C1492   1.386       .  A
C1487      C1495   1.382       .  A
C1488      N1489   1.348       .  A
C1488      H1501   1.082       .  S
N1489      C1490   1.356       .  A
N1489      C1638   1.396       .  S
C1490      H1491   1.083       .  S
C1492      N1493   1.355       .  A
C1492      H1502   1.082       .  S
N1493      C1494   1.346       .  A
N1493      C1635   1.394       .  S
C1494      H1500   1.082       .  S
C1495      N1496   1.352       .  A
C1495      H1497   1.082       .  S
N1496      C1498   1.351       .  A
N1496      C1634   1.400       .  S
C1498      H1499   1.080       .  S
C1503      O1505   1.262       .  A
C1503      C1643   1.438       .  S
Tb1504     O1515   2.581       .  S
Tb1504     O1525   2.350       .  S
O1505     Tb1509   2.345       .  S
O1506      C1517   1.260       .  A
C1507      O1512   1.253       .  A
C1507      O1528   1.260       .  A
C1507      C1628   1.424       .  S
O1508      C1524   1.261       .  A
Tb1509     O1512   2.319       .  S
Tb1509     O1521   2.535       .  S
O1511      C1514   1.253       .  A
O1513      C1523   1.316       .  A
C1514      O1527   1.260       .  A
C1514      C1642   1.438       .  S
C1516      O1525   1.260       .  A
C1517      O1519   1.262       .  A
C1517      C1631   1.433       .  S
O1521      C1522   1.308       .  A
C1522      C1549   1.670       .  S
C1523      C1548   1.671       .  S
C1524      C1639   1.437       .  S
C1529      O1544   1.260       .  A
C1529      O1531   1.257       .  A
C1529      C1637   1.427       .  S
Tb1530     O1546   2.535       .  S
Tb1530     O1541   2.583       .  S
Tb1530     O1534   2.358       .  S
Tb1530     O1551   2.367       .  S
O1531     Tb1535   2.351       .  S
O1532      C1543   1.257       .  A
C1533      O1538   1.260       .  A
C1533      O1554   1.253       .  A
C1533      C1622   1.439       .  S
O1534      C1550   1.262       .  A
Tb1535     O1539   2.581       .  S
Tb1535     O1544   2.350       .  S
Tb1535     O1538   2.352       .  S
Tb1535     O1547   2.509       .  S
O1537      C1540   1.260       .  A
O1539      C1549   1.317       .  A
C1540      O1553   1.253       .  A
C1540      C1636   1.424       .  S
C1542      O1551   1.263       .  A
C1543      O1545   1.261       .  A
C1543      C1626   1.437       .  S
O1547      C1548   1.298       .  A
C1550      C1633   1.433       .  S
C1555      C1557   1.539       .  S
C1555      C1559   1.542       .  S
C1555      C1558   1.514       .  S
C1556      C1560   1.546       .  S
C1556      C1562   1.511       .  S
C1556      C1561   1.540       .  S
C1556      C1612   1.462       .  S
C1557      C1565   1.383       .  A
C1557      C1560   1.389       .  A
C1558      C1569   1.367       .  A
C1558      C1561   1.375       .  A
C1559      C1573   1.386       .  A
C1559      C1562   1.372       .  A
C1560      C1563   1.382       .  A
C1561      C1567   1.386       .  A
C1562      C1570   1.369       .  A
C1563      N1564   1.352       .  A
C1563      H1576   1.082       .  S
N1564      C1565   1.351       .  A
N1564      C1632   1.401       .  S
C1567      N1568   1.355       .  A
C1567      H1577   1.082       .  S
N1568      C1569   1.346       .  A
N1568      C1627   1.394       .  S
C1570      N1571   1.348       .  A
C1570      H1572   1.082       .  S
N1571      C1573   1.356       .  A
N1571      C1630   1.396       .  S
C1578      C1580   1.546       .  S
C1578      C1582   1.516       .  S
C1578      C1581   1.543       .  S
C1578      C1615   1.459       .  S
C1579      C1583   1.540       .  S
C1579      C1585   1.543       .  S
C1579      C1584   1.521       .  S
C1579      C1605   1.457       .  S
C1580      C1588   1.386       .  A
C1580      C1583   1.388       .  A
C1581      C1592   1.392       .  A
C1581      C1584   1.372       .  A
C1582      C1596   1.368       .  A
C1582      C1585   1.372       .  A
C1583      C1586   1.381       .  A
C1584      C1590   1.373       .  A
C1585      C1593   1.392       .  A
C1586      N1587   1.352       .  A
C1586      H1599   1.081       .  S
N1587      C1588   1.354       .  A
N1587      C1625   1.404       .  S
C1588      H1589   1.081       .  S
C1590      N1591   1.347       .  A
C1590      H1600   1.083       .  S
N1591      C1592   1.360       .  A
N1591      C1621   1.404       .  S
C1592      H1598   1.082       .  S
C1593      N1594   1.361       .  A
C1593      H1595   1.082       .  S
N1594      C1596   1.347       .  A
N1594      C1623   1.402       .  S
C1596      H1597   1.084       .  S
C1601      C1602   1.396       .  A
C1601      C1606   1.364       .  A
C1601      H1607   1.084       .  S
C1602      C1603   1.393       .  A
C1603      C1604   1.376       .  A
C1603      H1608   1.077       .  S
C1604      C1605   1.400       .  A
C1604      H1609   1.078       .  S
C1605      C1606   1.400       .  A
C1606      H1610   1.082       .  S
C1611      C1612   1.396       .  A
C1611      C1616   1.370       .  A
C1611      H1617   1.082       .  S
C1612      C1613   1.397       .  A
C1613      C1614   1.374       .  A
C1613      H1618   1.082       .  S
C1614      C1615   1.398       .  A
C1614      H1619   1.080       .  S
C1615      C1616   1.400       .  A
C1616      H1620   1.082       .  S
C1621      C1622   1.208       .  T
C1623      C1624   1.207       .  T
C1625      C1626   1.207       .  T
C1627      C1628   1.199       .  T
C1629      C1630   1.201       .  T
C1631      C1632   1.205       .  T
C1633      C1634   1.205       .  T
C1635      C1636   1.199       .  T
C1637      C1638   1.201       .  T
C1639      C1640   1.207       .  T
C1641      C1642   1.208       .  T
C1643      C1644   1.207       .  T
C1645      C1646   1.400       .  A
C1645      C1650   1.376       .  A
C1645      H1651   1.078       .  S
C1646      C1647   1.400       .  A
C1647      C1648   1.363       .  A
C1647      H1652   1.082       .  S
C1648      C1649   1.396       .  A
C1648      H1653   1.084       .  S
C1649      C1650   1.393       .  A
C1650      H1654   1.077       .  S
C1655      C1656   1.398       .  A
C1655      C1660   1.374       .  A
C1655      H1661   1.080       .  S
C1656      C1657   1.400       .  A
C1657      C1658   1.370       .  A
C1657      H1662   1.083       .  S
C1658      C1659   1.396       .  A
C1658      H1663   1.082       .  S
C1659      C1660   1.397       .  A
C1660      H1664   1.082       .  S
