geometry optimzed in LAMMPS
_audit_creation_date              2020-11-30 
_audit_creation_method            'lammps2cif' 
_symmetry_space_group_name_H-M    'P1' 
_symmetry_Int_Tables_number       1 
_symmetry_cell_setting            triclinic 
loop_ 
_symmetry_equiv_pos_as_xyz 
  x,y,z 
_cell_length_a                    34.03137956 
_cell_length_b                    33.88753938707144 
_cell_length_c                    33.94830357519583 
_cell_angle_alpha                 90.95845244632926 
_cell_angle_beta                  90.8615872665083 
_cell_angle_gamma                 90.62929240956396 
loop_ 
_atom_site_label 
_atom_site_type_symbol 
_atom_site_fract_x 
_atom_site_fract_y 
_atom_site_fract_z 
_atom_site_charge 
C1          C  0.14805433  0.72987301  0.96774141     0.82200
N2          N  0.10884569  0.72878442  0.97412776    -0.76100
C3          C  0.09505071  0.72961621  0.01142870     0.84600
N4          N  0.12056665  0.73115261  0.04263816    -0.76100
C5          C  0.16004098  0.73205469  0.03649203     0.84700
N6          N  0.17346851  0.73167364  0.99905808    -0.77800
C7          C  0.35378945  0.59409170  0.03298946     0.82200
N8          N  0.35213605  0.61277565  0.99805972    -0.76100
C9          C  0.35627089  0.59203317  0.96394834     0.84600
N10         N  0.36151530  0.55247114  0.96459999    -0.76100
C11         C  0.36325896  0.53367256  0.99951072     0.84700
N12         N  0.35913035  0.55443062  0.03377637    -0.77800
C13         C  0.92172457  0.25888695  0.03776241     0.82200
N14         N  0.96080734  0.26684158  0.03903254    -0.76100
C15         C  0.98120404  0.27087014  0.00557312     0.84600
N16         N  0.96280276  0.26681610  0.97021105    -0.76100
C17         C  0.92378634  0.25869103  0.96781776     0.84700
N18         N  0.90285284  0.25446691  0.00186350    -0.77800
C19         C  0.71344487  0.36780151  0.97172445     0.82200
N20         N  0.70905956  0.40744563  0.96983498    -0.76100
C21         C  0.70638934  0.42944568  0.00340293     0.84600
N22         N  0.70873864  0.41181796  0.03901174    -0.76100
C23         C  0.71316563  0.37210090  0.04095547     0.84700
N24         N  0.71579951  0.35016887  0.00727164    -0.77800
C25         C  0.79436918  0.94538834  0.11140378     0.82200
N26         N  0.79384301  0.97749789  0.13597438    -0.76100
C27         C  0.79362455  0.01455631  0.12144468     0.84600
N28         N  0.79432996  0.01961056  0.08180180    -0.76100
C29         C  0.79522303  0.98781023  0.05699083     0.84700
N30         N  0.79498364  0.95071789  0.07178842    -0.77800
C31         C  0.65572759  0.01533527  0.30784965     0.82200
N32         N  0.61603217  0.01494900  0.31116824    -0.76100
C33         C  0.59644226  0.98029704  0.31596706     0.84600
N34         N  0.61647336  0.94595602  0.31714317    -0.76100
C35         C  0.65614047  0.94623955  0.31395279     0.84700
N36         N  0.67577855  0.98090649  0.30903616    -0.77800
C37         C  0.28085590  0.01838132  0.89002430     0.82200
N38         N  0.28485850  0.01408205  0.92939250    -0.76100
C39         C  0.28647457  0.97758232  0.94483748     0.84600
N40         N  0.28458311  0.94507140  0.92086391    -0.76100
C41         C  0.28085376  0.94923052  0.88117557     0.84700
N42         N  0.27870609  0.98589222  0.86603141    -0.77800
C43         C  0.41809024  0.93870758  0.69061565     0.82200
N44         N  0.39562126  0.97132568  0.69040266    -0.76100
C45         C  0.41244877  0.00754789  0.68889169     0.84600
N46         N  0.45234440  0.01127684  0.68793478    -0.76100
C47         C  0.47506148  0.97837784  0.68805874     0.84700
N48         N  0.45782079  0.94211445  0.68971709    -0.77800
C49         C  0.91254347  0.74983034  0.03180948     0.82200
N50         N  0.95160222  0.74472729  0.03928553    -0.76100
C51         C  0.97687785  0.73953129  0.00914102     0.84600
N52         N  0.96331255  0.73938056  0.97141809    -0.76100
C53         C  0.92459709  0.74452645  0.96349129     0.84700
N54         N  0.89921606  0.74958729  0.99383917    -0.77800
C55         C  0.72400582  0.60885196  0.03274123     0.82200
N56         N  0.71666965  0.56946134  0.03302157    -0.76100
C57         C  0.71018117  0.54927831  0.99865751     0.84600
N58         N  0.71160412  0.56848546  0.96386767    -0.76100
C59         C  0.71885609  0.60800370  0.96369911     0.84700
N60         N  0.72534576  0.62803436  0.99810145    -0.77800
C61         C  0.14892011  0.24978584  0.95694177     0.82200
N62         N  0.17218558  0.23851174  0.98771815    -0.76100
C63         C  0.15848294  0.23964389  0.02510558     0.84600
N64         N  0.12116505  0.25186945  0.03148632    -0.76100
C65         C  0.09824842  0.26344081  0.00086280     0.84700
N66         N  0.11209166  0.26238184  0.96375640    -0.77800
C67         C  0.35500219  0.35381700  0.96313197     0.82200
N68         N  0.35126817  0.33462515  0.99755099    -0.76100
C69         C  0.35440456  0.35479666  0.03222649     0.84600
N70         N  0.36062743  0.39436257  0.03262323    -0.76100
C71         C  0.36441534  0.41371277  0.99823353     0.84700
N72         N  0.36122014  0.39350331  0.96337826    -0.77800
C73         C  0.78267744  0.94572700  0.88357470     0.82200
N74         N  0.78574863  0.95242262  0.92287121    -0.76100
C75         C  0.79158350  0.98949074  0.93740315     0.84600
N76         N  0.79429214  0.02040413  0.91235276    -0.76100
C77         C  0.79125556  0.01395931  0.87255569     0.84700
N78         N  0.78554567  0.97656329  0.85853696    -0.77800
C79         C  0.65586465  0.01539017  0.69223411     0.82200
N80         N  0.61599437  0.01553286  0.69052243    -0.76100
C81         C  0.59531450  0.98108984  0.68830357     0.84600
N82         N  0.61461243  0.94617504  0.68795988    -0.76100
C83         C  0.65454710  0.94560620  0.68960358     0.84700
N84         N  0.67520911  0.98033135  0.69197421    -0.77800
C85         C  0.27681046  0.99817360  0.12684448     0.82200
N86         N  0.28010001  0.00188736  0.08713095    -0.76100
C87         C  0.28490858  0.96937787  0.06381341     0.84600
N88         N  0.28643241  0.93321902  0.07987494    -0.76100
C89         C  0.28292971  0.92908013  0.11919594     0.84700
N90         N  0.27816975  0.96161737  0.14271128    -0.77800
C91         C  0.41733528  0.94239250  0.31117275     0.82200
N92         N  0.39751695  0.97645205  0.30648414    -0.76100
C93         C  0.41726148  0.01133964  0.30618572     0.84600
N94         N  0.45698027  0.01226323  0.31015143    -0.76100
C95         C  0.47689196  0.97814513  0.31481754     0.84700
N96         N  0.45709437  0.94314031  0.31509626    -0.77800
C97         C  0.99010556  0.09595551  0.73408702     0.82200
N98         N  0.98885378  0.05611096  0.72987397    -0.76100
C99         C  0.02229972  0.03550280  0.72584088     0.84600
N100        N  0.05730597  0.05439521  0.72543209    -0.76100
C101        C  0.05971455  0.09404424  0.72965189     0.84700
N102        N  0.02587091  0.11534391  0.73439115    -0.77800
C103        C  0.99734362  0.29743517  0.62120024     0.82200
N104        N  0.03264320  0.29476429  0.64026482    -0.76100
C105        C  0.06657644  0.29591961  0.61965239     0.84600
N106        N  0.06524312  0.29923597  0.57997804    -0.76100
C107        C  0.03027316  0.30176090  0.56065614     0.84700
N108        N  0.99618678  0.30062367  0.58120833    -0.77800
C109        C  0.07812886  0.86797433  0.74820808     0.82200
N110        N  0.04750367  0.84231402  0.75334691    -0.76100
C111        C  0.00983783  0.85472149  0.74951192     0.84600
N112        N  0.00296103  0.89288700  0.74054604    -0.76100
C113        C  0.03321125  0.91826884  0.73520902     0.84700
N114        N  0.07077379  0.90593800  0.73898827    -0.77800
C115        C  0.00249133  0.65724423  0.62332861     0.82200
N116        N  0.00269791  0.65367405  0.58337288    -0.76100
C117        C  0.03741949  0.64941153  0.56446790     0.84600
N118        N  0.07168921  0.64966362  0.58554030    -0.76100
C119        C  0.07103492  0.65318999  0.62541403     0.84700
N120        N  0.03658976  0.65728118  0.64405894    -0.77800
C121        C  0.08585753  0.86237983  0.25743300     0.82200
N122        N  0.08293940  0.90228614  0.25713249    -0.76100
C123        C  0.04710694  0.91938243  0.25506535     0.84600
N124        N  0.01400844  0.89655696  0.25347617    -0.76100
C125        C  0.01671819  0.85653520  0.25376493     0.84700
N126        N  0.05265984  0.83971090  0.25556422    -0.77800
C127        C  0.07971438  0.65390194  0.38680326     0.82200
N128        N  0.04656636  0.66110791  0.36533060    -0.76100
C129        C  0.01120956  0.66322299  0.38332931     0.84600
N130        N  0.00913108  0.65858628  0.42288676    -0.76100
C131        C  0.04214126  0.65139658  0.44441911     0.84700
N132        N  0.07745530  0.64929983  0.42638857    -0.77800
C133        C  0.99103484  0.09157149  0.24463104     0.82200
N134        N  0.02210401  0.11700876  0.24188042    -0.76100
C135        C  0.05949865  0.10360592  0.24276551     0.84600
N136        N  0.06575861  0.06414325  0.24614701    -0.76100
C137        C  0.03483958  0.03863674  0.24882280     0.84700
N138        N  0.99759151  0.05242027  0.24827529    -0.77800
C139        C  0.07569116  0.29053529  0.38437438     0.82200
N140        N  0.07268306  0.29525674  0.42409342    -0.76100
C141        C  0.03662339  0.29803335  0.44068095     0.84600
N142        N  0.00378637  0.29564850  0.41757975    -0.76100
C143        C  0.00681770  0.29092269  0.37799729     0.84700
N144        N  0.04271450  0.28816307  0.36146196    -0.77800
C145        C  0.30003194  0.50664641  0.39668775     0.82200
N146        N  0.29764000  0.47119929  0.37646861    -0.76100
C147        C  0.29592078  0.43647880  0.39686425     0.84600
N148        N  0.29691966  0.43776793  0.43682971    -0.76100
C149        C  0.29956939  0.47266633  0.45663192     0.84700
N150        N  0.30087366  0.50679485  0.43664302    -0.77800
C151        C  0.15528147  0.43840613  0.17763858     0.82200
N152        N  0.11572568  0.44093857  0.17303027    -0.76100
C153        C  0.09895240  0.47667739  0.16773449     0.84600
N154        N  0.12176565  0.50988535  0.16805247    -0.76100
C155        C  0.16137833  0.50704822  0.17257414     0.84700
N156        N  0.17791067  0.47140765  0.17768043    -0.77800
O157        O  0.24261441  0.73641345  0.13581081    -0.84600
O158        O  0.21615057  0.67258054  0.34852541    -0.84700
O159        O  0.20513103  0.63283345  0.21273163    -0.86400
O160        O  0.16772041  0.74860866  0.24751587    -0.85100
O161        O  0.19854371  0.80580035  0.26868185    -0.84700
O162        O  0.26412500  0.60061072  0.20922058    -0.86100
O163        O  0.17741564  0.67513540  0.29257476    -0.84600
O164        O  0.19260614  0.71081748  0.17261790    -0.84200
Zr165      Zr  0.21747179  0.69860767  0.23875784     2.84300
O166        O  0.23841535  0.73260202  0.29560031    -1.06100
O167        O  0.27120387  0.68385862  0.19927170    -1.06900
C168        C  0.20668305  0.72438351  0.14042132     1.08600
C169        C  0.18297457  0.66894458  0.32960981     1.08500
C170        C  0.22649937  0.60292743  0.20416891     1.11500
C171        C  0.16781682  0.78535477  0.25789509     1.09300
H172        H  0.24806664  0.63509230  0.28126218     0.34800
O173        O  0.26135470  0.65921809  0.27409960    -1.27100
H174        H  0.22909053  0.77311930  0.20490700     0.34500
O175        O  0.24750299  0.75720476  0.21936589    -1.28800
O176        O  0.33991919  0.70377453  0.37487288    -0.84500
O177        O  0.36748055  0.76413777  0.16070670    -0.86000
O178        O  0.31516060  0.59402232  0.28460544    -0.84600
O179        O  0.25162815  0.80156228  0.34519024    -0.84700
O180        O  0.26775114  0.84113235  0.22642838    -0.84400
O181        O  0.33150936  0.63384254  0.16592685    -0.84200
O182        O  0.41628878  0.69290199  0.26310300    -0.84600
O183        O  0.37919276  0.80836787  0.29042746    -0.84000
O184        O  0.38747471  0.63529520  0.23990260    -0.85100
O185        O  0.31979653  0.83943081  0.29489307    -0.84200
O186        O  0.29534965  0.62262363  0.34275405    -0.84600
O187        O  0.32123605  0.69135850  0.13227797    -0.84400
O188        O  0.28906742  0.81307543  0.16853431    -0.84000
O189        O  0.26025016  0.74343276  0.37826152    -0.84400
O190        O  0.38955654  0.73090025  0.33851598    -0.84700
O191        O  0.40625192  0.76263518  0.21668137    -0.86100
Zr192      Zr  0.28284905  0.69359387  0.33099195     2.83100
Zr193      Zr  0.30107174  0.74267428  0.17918881     2.83500
Zr194      Zr  0.31583456  0.64529457  0.23479302     2.84100
Zr195      Zr  0.26842815  0.79141680  0.27639705     2.83400
Zr196      Zr  0.36587771  0.74023106  0.27140792     2.84200
O197        O  0.32188786  0.77827864  0.23573829    -1.06600
O198        O  0.33724493  0.68043401  0.29127898    -1.06100
C199        C  0.37499902  0.71818894  0.37086560     1.08500
C200        C  0.40073720  0.76821476  0.17943521     1.11100
C201        C  0.30608768  0.59246689  0.32138081     1.08700
C202        C  0.25107550  0.78028431  0.37633607     1.09100
C203        C  0.27716545  0.84255700  0.18992585     1.08600
C204        C  0.33071820  0.65459966  0.13443229     1.08200
C205        C  0.41749644  0.65708157  0.25066828     1.08600
C206        C  0.35768773  0.83873307  0.29683853     1.08100
H207        H  0.36750758  0.69799943  0.19923406     0.34800
O208        O  0.34525102  0.70438287  0.21535993    -1.27700
H209        H  0.32183761  0.76838895  0.33500077     0.34800
O210        O  0.31280683  0.75338211  0.31211036    -1.29100
C211        C  0.41213362  0.24825020  0.46337388     0.82200
N212        N  0.39109033  0.25117887  0.49655342    -0.76100
C213        C  0.40822283  0.24801609  0.53230407     0.84600
N214        N  0.44792626  0.24302844  0.53525192    -0.76100
C215        C  0.46997695  0.24117658  0.50197786     0.84700
N216        N  0.45185082  0.24321869  0.46582983    -0.77800
C217        C  0.23136899  0.09028421  0.45829055     0.82200
N218        N  0.22882857  0.05021593  0.45736643    -0.76100
C219        C  0.22412591  0.03032893  0.49145506     0.84600
N220        N  0.22226444  0.05045600  0.52623420    -0.76100
C221        C  0.22465519  0.09039894  0.52692436     0.84700
N222        N  0.22943563  0.11024133  0.49305593    -0.77800
O223        O  0.25629283  0.10139775  0.78135620    -0.84600
O224        O  0.32483893  0.31247238  0.83054820    -0.84700
O225        O  0.36301287  0.18155324  0.83852408    -0.86400
O226        O  0.24540499  0.20838328  0.86823570    -0.85100
O227        O  0.19309570  0.23773916  0.83735846    -0.84700
O228        O  0.39850085  0.18211359  0.78167766    -0.86100
O229        O  0.31916368  0.25531907  0.86588126    -0.84600
O230        O  0.28419039  0.13227105  0.83594540    -0.84200
Zr231      Zr  0.29643959  0.20202772  0.82133859     2.84300
O232        O  0.26473628  0.26009977  0.80242989    -1.06100
O233        O  0.31193966  0.16458413  0.76596870    -1.06900
C234        C  0.26945081  0.10187574  0.81704829     1.08600
C235        C  0.32726156  0.29246357  0.86246683     1.08500
C236        C  0.39493739  0.17717370  0.81897751     1.11500
C237        C  0.21114479  0.22365593  0.86793936     1.09300
H238        H  0.36096884  0.24871535  0.79890891     0.34800
O239        O  0.33774657  0.24117860  0.78378076    -1.27100
H240        H  0.22111212  0.17003959  0.80202353     0.34500
O241        O  0.23858421  0.18517742  0.78590235    -1.28800
O242        O  0.30810376  0.34042851  0.70517328    -0.84500
O243        O  0.23638924  0.13296141  0.66133046    -0.86000
O244        O  0.40376394  0.25558099  0.73406890    -0.84600
O245        O  0.19603950  0.31122617  0.78583886    -0.84700
O246        O  0.15536225  0.19564733  0.76230128    -0.84400
O247        O  0.36592360  0.13539848  0.71034987    -0.84200
O248        O  0.32690455  0.23860136  0.62861812    -0.84600
O249        O  0.20107873  0.26454963  0.65525366    -0.84000
O250        O  0.37821042  0.21307868  0.66424578    -0.85100
O251        O  0.16607742  0.26532957  0.71278733    -0.84200
O252        O  0.37502868  0.31330853  0.75424846    -0.84600
O253        O  0.30679390  0.10175886  0.71102569    -0.84400
O254        O  0.18146605  0.13911276  0.73572402    -0.84000
O255        O  0.25457958  0.34524768  0.78207061    -0.84400
O256        O  0.28323848  0.30742713  0.65045875    -0.84700
O257        O  0.24579872  0.18911931  0.62539494    -0.86100
Zr258      Zr  0.30536487  0.29804671  0.76255773     2.83100
Zr259      Zr  0.25444215  0.14844572  0.72928898     2.83500
Zr260      Zr  0.35451290  0.20312810  0.72928358     2.84100
Zr261      Zr  0.20807577  0.24341342  0.76660674     2.83400
Zr262      Zr  0.26769385  0.24166611  0.67053921     2.84200
O263        O  0.22421866  0.20642153  0.71006136    -1.06600
O264        O  0.32312339  0.25976450  0.70804883    -1.06100
C265        C  0.29875824  0.33768343  0.66811321     1.08500
C266        C  0.23657265  0.15235471  0.62901898     1.11100
C267        C  0.40481287  0.29262597  0.74339998     1.08700
C268        C  0.21730334  0.34278107  0.78879220     1.09100
C269        C  0.15223862  0.16018985  0.74860675     1.08600
C270        C  0.34454163  0.10405047  0.70633304     1.08200
C271        C  0.36321868  0.22756019  0.63289408     1.08600
C272        C  0.16962131  0.27034747  0.67543314     1.08100
H273        H  0.30712803  0.16919244  0.66858182     0.34800
O274        O  0.29888904  0.18458737  0.69118680    -1.27700
H275        H  0.23610993  0.30347609  0.71689429     0.34800
O276        O  0.24930031  0.28003501  0.72570680    -1.29100
C277        C  0.41269599  0.73257981  0.47712733     0.82200
N278        N  0.39778990  0.73169673  0.51395788    -0.76100
C279        C  0.42090334  0.74106397  0.54591569     0.84600
N280        N  0.45900358  0.75151342  0.54076957    -0.76100
C281        C  0.47390126  0.75276142  0.50402745     0.84700
N282        N  0.45094359  0.74305231  0.47232148    -0.77800
C283        C  0.22232601  0.85663851  0.54212720     0.82200
N284        N  0.22057206  0.89615725  0.53660742    -0.76100
C285        C  0.22177185  0.91069555  0.49960405     0.84600
N286        N  0.22525150  0.88573837  0.46820418    -0.76100
C287        C  0.22703677  0.84621898  0.47374169     0.84700
N288        N  0.22583265  0.83172928  0.51069738    -0.77800
C289        C  0.30852710  0.50961529  0.63658616     0.82200
N290        N  0.30438409  0.50938369  0.59672826    -0.76100
C291        C  0.30797877  0.47499882  0.57616143     0.84600
N292        N  0.31467256  0.44096396  0.59544522    -0.76100
C293        C  0.31892149  0.44154340  0.63530450     0.84700
N294        N  0.31617012  0.47586518  0.65556352    -0.77800
C295        C  0.15652464  0.44199016  0.81726763     0.82200
N296        N  0.17576379  0.47719741  0.81778488    -0.76100
C297        C  0.15583660  0.51098419  0.82429127     0.84600
N298        N  0.11656188  0.50978189  0.82972162    -0.76100
C299        C  0.09709598  0.47472400  0.82925963     0.84700
N300        N  0.11696989  0.44064536  0.82269526    -0.77800
O301        O  0.25547880  0.74127884  0.87993191    -0.84600
O302        O  0.19813054  0.68886257  0.66780481    -0.84700
O303        O  0.16498129  0.76518835  0.77786250    -0.86400
O304        O  0.19402181  0.64518076  0.79968696    -0.85100
O305        O  0.24892010  0.60738925  0.79060126    -0.84700
O306        O  0.19701590  0.82061180  0.75594959    -0.86100
O307        O  0.16571864  0.68774340  0.72672847    -0.84600
O308        O  0.19717849  0.72247296  0.84993433    -0.84200
Zr309      Zr  0.21038504  0.71174887  0.77943355     2.84300
O310        O  0.24524171  0.67264087  0.73517579    -1.06100
O311        O  0.24878845  0.76635893  0.79975298    -1.06900
C312        C  0.21850810  0.73302628  0.88036347     1.08600
C313        C  0.16803779  0.68208122  0.68906646     1.08500
C314        C  0.16608364  0.80147042  0.76759009     1.11500
C315        C  0.21295790  0.61247249  0.80067920     1.09300
H316        H  0.20443552  0.75833831  0.71093656     0.34800
O317        O  0.22768871  0.74954791  0.72471015    -1.27100
H318        H  0.25923456  0.67429136  0.83434623     0.34500
O319        O  0.26648842  0.68918033  0.81151373    -1.28800
O320        O  0.31419809  0.71716398  0.63228042    -0.84500
O321        O  0.37331021  0.76086120  0.84410338    -0.86000
O322        O  0.24579622  0.82263474  0.67934606    -0.84600
O323        O  0.29138341  0.60808024  0.70942619    -0.84700
O324        O  0.32626740  0.63240367  0.83207505    -0.84400
O325        O  0.27553033  0.84785770  0.80271313    -0.84200
O326        O  0.37681509  0.80548109  0.71534509    -0.84600
O327        O  0.40188054  0.67947510  0.73235006    -0.84000
O328        O  0.32174762  0.84394176  0.72211474    -0.85100
O329        O  0.36622871  0.62598537  0.75311140    -0.84200
O330        O  0.24305696  0.76581130  0.64150226    -0.84600
O331        O  0.29970708  0.81114432  0.85368156    -0.84400
O332        O  0.32809842  0.68896007  0.87042805    -0.84000
O333        O  0.27136260  0.64431010  0.65645917    -0.84400
O334        O  0.37269268  0.73404814  0.66289571    -0.84700
O335        O  0.40683192  0.75658147  0.78592005    -0.86100
Zr336      Zr  0.26420292  0.71081294  0.68160864     2.83100
Zr337      Zr  0.30561494  0.74334016  0.83054274     2.83500
Zr338      Zr  0.26675802  0.80362792  0.74537815     2.84100
Zr339      Zr  0.30127818  0.64989014  0.76736064     2.83400
Zr340      Zr  0.35989731  0.73873393  0.73356750     2.84200
O341        O  0.34148292  0.70266923  0.78838071    -1.06600
O342        O  0.30339381  0.76368447  0.70276075    -1.06100
C343        C  0.35103658  0.72604436  0.63206746     1.08500
C344        C  0.40449008  0.76309312  0.82336766     1.11100
C345        C  0.23955380  0.80337783  0.64668509     1.08700
C346        C  0.28215763  0.61211089  0.67268261     1.09100
C347        C  0.33293494  0.65166625  0.86457987     1.08600
C348        C  0.28781952  0.84367562  0.83867703     1.08200
C349        C  0.35822624  0.83832333  0.71355017     1.08600
C350        C  0.39787380  0.64230369  0.74057548     1.08100
H351        H  0.34030119  0.80196258  0.78509944     0.34800
O352        O  0.32401731  0.77992604  0.77620663    -1.27700
H353        H  0.33466034  0.66991290  0.69432298     0.34800
O354        O  0.32019668  0.68610093  0.71258193    -1.29100
C355        C  0.80387272  0.45573634  0.37624525     0.82200
N356        N  0.81489612  0.44970982  0.41430038    -0.76100
C357        C  0.82402044  0.48088773  0.43836597     0.84600
N358        N  0.82163738  0.51812602  0.42490452    -0.76100
C359        C  0.81055415  0.52442705  0.38716007     0.84700
N360        N  0.80175926  0.49312787  0.36283769    -0.77800
C361        C  0.92386276  0.52262423  0.18384891     0.82200
N362        N  0.96281376  0.51994076  0.17648954    -0.76100
C363        C  0.97980801  0.48402095  0.17326573     0.84600
N364        N  0.95787401  0.45071557  0.17795963    -0.76100
C365        C  0.91885330  0.45331905  0.18538882     0.84700
N366        N  0.90194455  0.48932868  0.18853380    -0.77800
C367        C  0.57452722  0.60424074  0.24837082     0.82200
N368        N  0.53722026  0.61738189  0.24411506    -0.76100
C369        C  0.50662835  0.59143829  0.23941366     0.84600
N370        N  0.51342087  0.55233177  0.23922558    -0.76100
C371        C  0.55035957  0.53882405  0.24378236     0.84700
N372        N  0.58108204  0.56459205  0.24845810    -0.77800
C373        C  0.57243890  0.78572771  0.12383596     0.82200
N374        N  0.57404705  0.78838073  0.08406510    -0.76100
C375        C  0.54048823  0.79016082  0.06212470     0.84600
N376        N  0.50499566  0.78899468  0.08013353    -0.76100
C377        C  0.50318535  0.78638468  0.12006575     0.84700
N378        N  0.53701050  0.78453780  0.14180992    -0.77800
O379        O  0.80428746  0.85980783  0.22224090    -0.84600
O380        O  0.75753117  0.64736422  0.16549580    -0.84700
O381        O  0.83335255  0.75826771  0.13316896    -0.86400
O382        O  0.70731151  0.77054277  0.16534144    -0.85100
O383        O  0.67210812  0.76275913  0.22227921    -0.84700
O384        O  0.88834398  0.74049042  0.16853859    -0.86100
O385        O  0.75865486  0.70574142  0.13201153    -0.84600
O386        O  0.78480114  0.82884009  0.16444475    -0.84200
Zr387      Zr  0.77728314  0.75823234  0.17881067     2.84300
O388        O  0.73941566  0.71523879  0.21701008    -1.06100
O389        O  0.83174396  0.77926911  0.21671705    -1.06900
C390        C  0.79516894  0.85974575  0.18523722     1.08600
C391        C  0.75322818  0.66811325  0.13426597     1.08500
C392        C  0.87065992  0.75112824  0.13670198     1.11500
C393        C  0.67509672  0.77001291  0.18520730     1.09300
H394        H  0.82484559  0.69035992  0.17292413     0.34800
O395        O  0.81575954  0.70398897  0.19627968    -1.27100
H396        H  0.73867770  0.81112453  0.22918716     0.34500
O397        O  0.75454779  0.78889160  0.23663311    -1.28800
O398        O  0.78415162  0.61215661  0.28317481    -0.84500
O399        O  0.82889367  0.82572206  0.34065982    -0.86000
O400        O  0.88756784  0.65874801  0.21258111    -0.84600
O401        O  0.67367365  0.68675314  0.26681051    -0.84700
O402        O  0.69851297  0.81174235  0.29593399    -0.84400
O403        O  0.91394644  0.78189482  0.24423026    -0.84200
O404        O  0.87946268  0.69519178  0.34306406    -0.84600
O405        O  0.76031928  0.71687533  0.37796028    -0.84000
O406        O  0.91472281  0.70233016  0.28636398    -0.85100
O407        O  0.70397331  0.73769631  0.34688800    -0.84200
O408        O  0.83150011  0.62037017  0.21240632    -0.84600
O409        O  0.87699545  0.83403167  0.26570978    -0.84400
O410        O  0.75433191  0.85062142  0.29533466    -0.84000
O411        O  0.71099497  0.63689449  0.24092983    -0.84400
O412        O  0.80492591  0.64240459  0.34099003    -0.84700
O413        O  0.83202373  0.76717090  0.37384659    -0.86100
Zr414      Zr  0.77749707  0.66132650  0.23351427     2.83100
Zr415      Zr  0.80937138  0.81084858  0.27344084     2.83500
Zr416      Zr  0.86985318  0.72513010  0.23503958     2.84100
Zr417      Zr  0.71726883  0.74522007  0.27544292     2.83400
Zr418      Zr  0.81138309  0.71338198  0.32887410     2.84200
O419        O  0.77260027  0.76731056  0.31148425    -1.06600
O420        O  0.83214296  0.68146776  0.27147330    -1.06100
C421        C  0.79469034  0.61182790  0.31963824     1.08500
C422        C  0.83557141  0.80506877  0.37140197     1.11100
C423        C  0.86858878  0.62579065  0.20742343     1.08700
C424        C  0.67842517  0.65103516  0.25340537     1.09100
C425        C  0.71722924  0.84491753  0.30044515     1.08600
C426        C  0.90970084  0.81830041  0.25521825     1.08200
C427        C  0.91140760  0.69355963  0.32302571     1.08600
C428        C  0.72408025  0.72755776  0.37801112     1.08100
H429        H  0.87094069  0.76676324  0.30722574     0.34800
O430        O  0.84847477  0.75751116  0.29188627    -1.27700
H431        H  0.74077894  0.67316637  0.30745677     0.34800
O432        O  0.75604857  0.69134465  0.29215539    -1.29100
C433        C  0.64935900  0.74166823  0.53285456     0.82200
N434        N  0.66934004  0.73819516  0.49811930    -0.76100
C435        C  0.64989561  0.74404541  0.46293401     0.84600
N436        N  0.61110266  0.75284024  0.46305985    -0.76100
C437        C  0.59161316  0.75613481  0.49730692     0.84700
N438        N  0.61067571  0.75058363  0.53187447    -0.77800
C439        C  0.86187778  0.86424499  0.54031762     0.82200
N440        N  0.86285218  0.90445346  0.54262121    -0.76100
C441        C  0.86332750  0.92577180  0.50889641     0.84600
N442        N  0.86189553  0.90677839  0.47333319    -0.76100
C443        C  0.86084979  0.86676149  0.47147353     0.84700
N444        N  0.86057624  0.84574809  0.50483374    -0.77800
C445        C  0.57141795  0.60368810  0.72014610     0.82200
N446        N  0.53699385  0.62296014  0.71810798    -0.76100
C447        C  0.50247647  0.60388606  0.72317126     0.84600
N448        N  0.50228874  0.56418129  0.72953369    -0.76100
C449        C  0.53692639  0.54415169  0.73077375     0.84700
N450        N  0.57152782  0.56412999  0.72659609    -0.77800
C451        C  0.50577564  0.78568726  0.88301895     0.77400
N452        N  0.50781666  0.78740731  0.92290053    -0.76100
C453        C  0.54329272  0.79022115  0.94156918     0.84600
N454        N  0.57684514  0.79068583  0.92003006    -0.76100
C455        C  0.57436027  0.78896282  0.87987583     0.84700
N456        N  0.53888403  0.78629123  0.86170487    -0.77800
C457        C  0.81050343  0.44545983  0.61423213     0.82200
N458        N  0.80546216  0.48152250  0.63221855    -0.76100
C459        C  0.81151561  0.51530441  0.61134376     0.84600
N460        N  0.82208492  0.51253363  0.57312011    -0.76100
C461        C  0.82710027  0.47690807  0.55562438     0.84700
N462        N  0.82114330  0.44363090  0.57600414    -0.77800
C463        C  0.92226984  0.52271960  0.82595589     0.82200
N464        N  0.96197099  0.51916454  0.82897097    -0.76100
C465        C  0.97808870  0.48283724  0.83288130     0.84600
N466        N  0.95463833  0.45028762  0.83312362    -0.76100
C467        C  0.91511776  0.45386452  0.83008368     0.84700
N468        N  0.89897154  0.48999665  0.82616025    -0.77800
O469        O  0.81959193  0.75667708  0.87042650    -0.84600
O470        O  0.87385584  0.68843441  0.66235936    -0.84700
O471        O  0.88307497  0.65642278  0.79522464    -0.86400
O472        O  0.90920299  0.77708693  0.76444010    -0.85100
O473        O  0.87199103  0.82761257  0.74026426    -0.84700
O474        O  0.82737932  0.61744825  0.79246014    -0.86100
O475        O  0.90869579  0.69737463  0.72061143    -0.84600
O476        O  0.87729773  0.73580301  0.84305187    -0.84200
Zr477      Zr  0.86435777  0.72132585  0.77222431     2.84300
O478        O  0.84352923  0.75065372  0.71348969    -1.06100
O479        O  0.80876855  0.70057423  0.80659660    -1.06900
C480        C  0.85622281  0.74799484  0.87237692     1.08600
C481        C  0.90536856  0.68757060  0.68363323     1.08500
C482        C  0.86439873  0.62349519  0.79952362     1.11500
C483        C  0.90470762  0.81266119  0.75218593     1.09300
H484        H  0.84348363  0.65429667  0.72603753     0.34800
O485        O  0.82760275  0.67687941  0.73233515    -1.27100
H486        H  0.84001234  0.79495753  0.80367633     0.34500
O487        O  0.82533241  0.77604473  0.78750486    -1.28800
O488        O  0.75647393  0.70814522  0.62204738    -0.84500
O489        O  0.70191429  0.77216649  0.83235971    -0.86000
O490        O  0.78198986  0.60421476  0.71869921    -0.84600
O491        O  0.82803184  0.81830269  0.66420836    -0.84700
O492        O  0.79389582  0.85550678  0.77740697    -0.84400
O493        O  0.75038864  0.64382500  0.83288522    -0.84200
O494        O  0.67109698  0.68038765  0.72497009    -0.84600
O495        O  0.69400281  0.80835260  0.70517719    -0.84000
O496        O  0.70690796  0.63080354  0.75312783    -0.85100
O497        O  0.75075496  0.84583007  0.70593330    -0.84200
O498        O  0.80117944  0.63376690  0.66164567    -0.84600
O499        O  0.74742588  0.70372523  0.86527858    -0.84400
O500        O  0.77229348  0.82646450  0.83375759    -0.84000
O501        O  0.83103503  0.75898248  0.63063784    -0.84400
O502        O  0.70002167  0.73119749  0.65037524    -0.84700
O503        O  0.66636932  0.76136020  0.77486166    -0.86100
Zr504      Zr  0.80666097  0.70621390  0.67370056     2.83100
Zr505      Zr  0.76901445  0.75496518  0.82022759     2.83500
Zr506      Zr  0.77261153  0.65618789  0.76673386     2.84100
Zr507      Zr  0.80460578  0.80476270  0.72885620     2.83400
Zr508      Zr  0.71184745  0.74039097  0.72235396     2.84200
O509        O  0.74882040  0.78451434  0.76202325    -1.06600
O510        O  0.75124103  0.68549947  0.70799002    -1.06100
C511        C  0.72052695  0.71975631  0.62024242     1.08500
C512        C  0.66988784  0.77133218  0.81188348     1.11100
C513        C  0.79252743  0.60307183  0.68252889     1.08700
C514        C  0.83566685  0.79695415  0.63381199     1.09100
C515        C  0.78196756  0.85674299  0.81305959     1.08600
C516        C  0.74343030  0.66579736  0.86320695     1.08200
C517        C  0.67539231  0.64467754  0.73741202     1.08600
C518        C  0.71324659  0.84128063  0.70147802     1.08100
H519        H  0.70978805  0.70089127  0.79498518     0.34800
O520        O  0.73248921  0.71003839  0.78088653    -1.27700
H521        H  0.76041042  0.77479430  0.66505076     0.34800
O522        O  0.76790716  0.76110662  0.68871954    -1.29100
C523        C  0.49643948  0.36872381  0.25181074     0.82200
N524        N  0.52632954  0.34277277  0.25738285    -0.76100
C525        C  0.56414696  0.35574117  0.26054271     0.84600
N526        N  0.57205732  0.39494884  0.25784331    -0.76100
C527        C  0.54264455  0.42086827  0.25229132     0.84700
N528        N  0.50482021  0.40784920  0.24931372    -0.77800
C529        C  0.56414239  0.16777770  0.11920934     0.82200
N530        N  0.56721566  0.16149283  0.07970550    -0.76100
C531        C  0.53429233  0.15532867  0.05716301     0.84600
N532        N  0.49847615  0.15601100  0.07389369    -0.76100
C533        C  0.49531483  0.16225627  0.11314506     0.84700
N534        N  0.52809183  0.16844175  0.13585517    -0.77800
O535        O  0.81104229  0.22951163  0.12241260    -0.84600
O536        O  0.87562512  0.26602386  0.33618248    -0.84700
O537        O  0.87490644  0.32080502  0.21004488    -0.86400
O538        O  0.90445525  0.19851192  0.22530451    -0.85100
O539        O  0.87394529  0.14258998  0.24799895    -0.84700
O540        O  0.81934081  0.35752092  0.21925441    -0.86100
O541        O  0.90672884  0.26958846  0.27661197    -0.84600
O542        O  0.86889742  0.24909110  0.15274534    -0.84200
Zr543      Zr  0.85869212  0.25223906  0.22481911     2.84300
O544        O  0.84267375  0.21308464  0.27915380    -1.06100
O545        O  0.80147229  0.27463253  0.19475467    -1.06900
C546        C  0.84738026  0.24058042  0.12170455     1.08600
C547        C  0.90597167  0.27181805  0.31460888     1.08500
C548        C  0.85582612  0.35353566  0.21016518     1.11500
C549        C  0.90423964  0.16220064  0.23577453     1.09300
H550        H  0.84023009  0.31142425  0.28035217     0.34800
O551        O  0.82406851  0.28950048  0.27102538    -1.27100
H552        H  0.83585693  0.18194179  0.18552361     0.34500
O553        O  0.82091671  0.19728532  0.20414182    -1.28800
O554        O  0.75557004  0.24532158  0.37339555    -0.84500
O555        O  0.69474524  0.20088470  0.16140978    -0.86000
O556        O  0.77858122  0.35556831  0.29872024    -0.84600
O557        O  0.82407903  0.13905383  0.32623012    -0.84700
O558        O  0.79619473  0.11531620  0.20070258    -0.84400
O559        O  0.74443633  0.33193447  0.17483547    -0.84200
O560        O  0.66477443  0.27662884  0.27151335    -0.84600
O561        O  0.69528808  0.15100043  0.28661232    -0.84000
O562        O  0.70062460  0.33163470  0.25484388    -0.85100
O563        O  0.75115062  0.11435426  0.27753705    -0.84200
O564        O  0.80179256  0.31719160  0.34891219    -0.84600
O565        O  0.74078342  0.27594116  0.13565273    -0.84400
O566        O  0.77196477  0.15251238  0.15001970    -0.84000
O567        O  0.82609410  0.19512587  0.36518073    -0.84400
O568        O  0.69702574  0.22782404  0.34302941    -0.84700
O569        O  0.66242873  0.20110021  0.22038062    -0.86100
Zr570      Zr  0.80646942  0.25007452  0.32418297     2.83100
Zr571      Zr  0.76317861  0.22012129  0.17401566     2.83500
Zr572      Zr  0.76721084  0.31273939  0.24050534     2.84100
Zr573      Zr  0.80443697  0.15860369  0.25875016     2.83400
Zr574      Zr  0.71004161  0.22034467  0.27225441     2.84200
O575        O  0.74674091  0.18185060  0.22817495    -1.06600
O576        O  0.74930313  0.27400329  0.29415731    -1.06100
C577        C  0.71850893  0.23697837  0.37374947     1.08500
C578        C  0.66392402  0.19614672  0.18259411     1.11100
C579        C  0.79145064  0.35041735  0.33435614     1.08700
C580        C  0.82937179  0.15757015  0.35970557     1.09100
C581        C  0.78427848  0.11987237  0.16468024     1.08600
C582        C  0.73726870  0.31339334  0.14187089     1.08200
C583        C  0.66855276  0.31396147  0.26443551     1.08600
C584        C  0.71453043  0.11825749  0.28606669     1.08100
H585        H  0.70462200  0.26853887  0.20547820     0.34800
O586        O  0.72793499  0.25896698  0.21857562    -1.27700
H587        H  0.75986036  0.18096781  0.32487327     0.34800
O588        O  0.76738971  0.19669290  0.30269013    -1.29100
C589        C  0.49024539  0.36783610  0.74371368     0.82200
N590        N  0.49548694  0.40756741  0.74267088    -0.76100
C591        C  0.53222710  0.42350942  0.74124181     0.84600
N592        N  0.56409687  0.39934404  0.74116313    -0.76100
C593        C  0.55897508  0.35927635  0.74224998     0.84700
N594        N  0.52206564  0.34399390  0.74332237    -0.77800
C595        C  0.49774872  0.15984690  0.87861114     0.82200
N596        N  0.53170181  0.16502971  0.85874519    -0.76100
C597        C  0.56672774  0.16446894  0.87838118     0.84600
N598        N  0.56782521  0.15928862  0.91783730    -0.76100
C599        C  0.53401673  0.15411775  0.93771752     0.84700
N600        N  0.49889545  0.15468111  0.91819564    -0.77800
C601        C  0.65569342  0.24362664  0.52887474     0.82200
N602        N  0.67016107  0.24054137  0.49192328    -0.76100
C603        C  0.64580113  0.23620736  0.45998393     0.84600
N604        N  0.60631663  0.23506753  0.46515827    -0.76100
C605        C  0.59104370  0.23824912  0.50182637     0.84700
N606        N  0.61579093  0.24250436  0.53382115    -0.77800
C607        C  0.84696086  0.10195124  0.46501640     0.82200
N608        N  0.84287583  0.12482681  0.49810846    -0.76100
C609        C  0.84519302  0.10840768  0.53444721     0.84600
N610        N  0.85126141  0.06902073  0.53755983    -0.76100
C611        C  0.85533291  0.04604310  0.50474509     0.84700
N612        N  0.85301485  0.06252688  0.46850494    -0.77800
O613        O  0.81688613  0.22434704  0.87875132    -0.84600
O614        O  0.86407284  0.27790148  0.66421528    -0.84700
O615        O  0.90688429  0.20551053  0.77093595    -0.86400
O616        O  0.87226135  0.32377803  0.79881831    -0.85100
O617        O  0.81426357  0.35781871  0.79937911    -0.84700
O618        O  0.87545460  0.15063182  0.74447160    -0.86100
O619        O  0.90016999  0.27757737  0.72224111    -0.84600
O620        O  0.87217852  0.24807561  0.84868443    -0.84200
Zr621      Zr  0.85775082  0.25632090  0.77673827     2.84300
O622        O  0.81744504  0.29506160  0.73645118    -1.06100
O623        O  0.82297025  0.19935160  0.79465655    -1.06900
C624        C  0.85271171  0.23672186  0.87943036     1.08600
C625        C  0.89643387  0.28196963  0.68444951     1.08500
C626        C  0.90668400  0.16996066  0.75690735     1.11500
C627        C  0.85161162  0.35487381  0.80517098     1.09300
H628        H  0.85901141  0.21367122  0.70443902     0.34800
O629        O  0.83644823  0.22148730  0.71943957    -1.27100
H630        H  0.81003746  0.28922434  0.83566275     0.34500
O631        O  0.80232968  0.27457717  0.81217719    -1.28800
O632        O  0.73802568  0.25581404  0.63231191    -0.84500
O633        O  0.69915089  0.19649249  0.84193956    -0.86000
O634        O  0.82042788  0.15047517  0.66816194    -0.84600
O635        O  0.77348887  0.36426342  0.72422417    -0.84700
O636        O  0.74130433  0.32732366  0.83989300    -0.84400
O637        O  0.80078421  0.11635820  0.79274260    -0.84200
O638        O  0.69333800  0.15311903  0.71433370    -0.84600
O639        O  0.66056288  0.27955302  0.74092939    -0.84000
O640        O  0.75117990  0.11838827  0.71663758    -0.85100
O641        O  0.69616547  0.33415346  0.76189010    -0.84200
O642        O  0.81591634  0.20814616  0.63352131    -0.84600
O643        O  0.77884806  0.15087003  0.84675720    -0.84400
O644        O  0.74352667  0.26932401  0.87381229    -0.84000
O645        O  0.79318158  0.33241906  0.66778750    -0.84400
O646        O  0.68515746  0.23279397  0.66679795    -0.84700
O647        O  0.66257651  0.20066465  0.78477537    -0.86100
Zr648      Zr  0.79582379  0.26061684  0.67908324     2.83100
Zr649      Zr  0.76627411  0.21827098  0.82870409     2.83500
Zr650      Zr  0.80382677  0.16371926  0.73763143     2.84100
Zr651      Zr  0.76294725  0.31399094  0.77289663     2.83400
Zr652      Zr  0.70640530  0.22292535  0.73400379     2.84200
O653        O  0.72613776  0.25846092  0.79068052    -1.06600
O654        O  0.76222236  0.20359974  0.69882443    -1.06100
C655        C  0.70127211  0.24487345  0.63508506     1.08500
C656        C  0.66689132  0.19315214  0.82161050     1.11100
C657        C  0.82260607  0.17080958  0.63622926     1.08700
C658        C  0.78518442  0.36395080  0.68834838     1.09100
C659        C  0.73709536  0.30658940  0.87109418     1.08600
C660        C  0.79094849  0.11923737  0.82956608     1.08200
C661        C  0.71371822  0.12106034  0.71090952     1.08600
C662        C  0.66402560  0.31679117  0.75073842     1.08100
H663        H  0.73304360  0.15954103  0.78030638     0.34800
O664        O  0.74736244  0.18270508  0.77225695    -1.27700
H665        H  0.72501849  0.29668908  0.69969668     0.34800
O666        O  0.74132968  0.27978943  0.71556472    -1.29100
O667        O  0.23515844  0.21538636  0.12481557    -0.84600
O668        O  0.21000995  0.26558706  0.34288611    -0.84700
O669        O  0.16135671  0.18441557  0.23737232    -0.86400
O670        O  0.19241030  0.30761156  0.21444735    -0.85100
O671        O  0.25029037  0.34330010  0.21175890    -0.84700
O672        O  0.19746266  0.13013849  0.25370975    -0.86100
O673        O  0.16955229  0.26211554  0.28799069    -0.84600
O674        O  0.18390946  0.23394416  0.16407605    -0.84200
Zr675      Zr  0.20812549  0.24045336  0.23170488     2.84300
O676        O  0.25203699  0.28112496  0.26856562    -1.06100
O677        O  0.24057981  0.18549927  0.20600792    -1.06900
C678        C  0.19902288  0.22550509  0.13036811     1.08600
C679        C  0.17639707  0.26873163  0.32505274     1.08500
C680        C  0.16491074  0.14731257  0.24553868     1.11500
C681        C  0.21256407  0.33926606  0.20839817     1.09300
H682        H  0.21167719  0.19664660  0.30074895     0.34800
O683        O  0.23319063  0.20538307  0.28469117    -1.27100
H684        H  0.25092629  0.27722276  0.17105426     0.34500
O685        O  0.26074243  0.26199266  0.19283851    -1.28800
O686        O  0.33606581  0.24177120  0.36339772    -0.84500
O687        O  0.35914714  0.18691375  0.14815177    -0.86000
O688        O  0.25243582  0.13474969  0.32729500    -0.84600
O689        O  0.30319175  0.35040368  0.28238772    -0.84700
O690        O  0.32371225  0.31658449  0.16351577    -0.84400
O691        O  0.26727501  0.10343617  0.20214973    -0.84200
O692        O  0.37546541  0.14200802  0.27763638    -0.84600
O693        O  0.40760121  0.26054597  0.25322988    -0.84000
O694        O  0.31814401  0.10573637  0.27770817    -0.85100
O695        O  0.37621564  0.31815773  0.23849576    -0.84200
O696        O  0.25925053  0.19153824  0.36531464    -0.84600
O697        O  0.28230337  0.13873781  0.14707732    -0.84400
O698        O  0.31560558  0.26005531  0.12572047    -0.84000
O699        O  0.28528918  0.31878207  0.33879831    -0.84400
O700        O  0.38588659  0.21681688  0.32588744    -0.84700
O701        O  0.39833044  0.18792164  0.20394831    -0.86100
Zr702      Zr  0.27602885  0.24676521  0.32267426     2.83100
Zr703      Zr  0.29323619  0.20698392  0.16762656     2.83500
Zr704      Zr  0.26561052  0.14989369  0.25901747     2.84100
Zr705      Zr  0.30531367  0.30123882  0.23023151     2.83400
Zr706      Zr  0.35961300  0.20894310  0.25943443     2.84200
O707        O  0.33724231  0.24552225  0.20599237    -1.06600
O708        O  0.30745456  0.19000378  0.29832063    -1.06100
C709        C  0.37190326  0.23010215  0.35847877     1.08500
C710        C  0.39217264  0.18247492  0.16677463     1.11100
C711        C  0.25225455  0.15413851  0.36030432     1.08700
C712        C  0.29484923  0.35021133  0.31920859     1.09100
C713        C  0.32501959  0.29676699  0.13088338     1.08600
C714        C  0.27407701  0.10635878  0.16477598     1.08200
C715        C  0.35560835  0.10993265  0.28227069     1.08600
C716        C  0.40732318  0.29765040  0.24637737     1.08100
H717        H  0.33145787  0.14706418  0.21029579     0.34800
O718        O  0.31758734  0.16983498  0.22008633    -1.27700
H719        H  0.34698829  0.28192884  0.29933201     0.34800
O720        O  0.32884585  0.26570816  0.28383638    -1.29100
C721        C  0.83918697  0.13201631  0.56979035    -0.11300
C722        C  0.83260992  0.14996163  0.60019207    -0.12900
C723        C  0.68434585  0.24764578  0.56264115    -0.14500
C724        C  0.67365565  0.24558258  0.60046618    -0.29700
H725        H  0.71536729  0.25033717  0.55595148     0.14500
H726        H  0.64263701  0.24146791  0.60663212     0.15100
C727        C  0.60248751  0.17207854  0.85808327    -0.11300
C728        C  0.63244114  0.18060132  0.84172395    -0.12900
C729        C  0.59251032  0.33146292  0.74219969    -0.14500
C730        C  0.62965679  0.34339118  0.74912087    -0.29700
H731        H  0.58615401  0.30019813  0.73778521     0.14500
H732        H  0.63540314  0.37460367  0.75484862     0.15100
C733        C  0.70053394  0.23817092  0.41314559    -0.14500
C734        C  0.66189726  0.23342366  0.41966178    -0.29700
H735        H  0.72036677  0.24397732  0.43801509     0.14500
H736        H  0.64163868  0.22826650  0.39503425     0.15100
C737        C  0.83817915  0.13490537  0.39462443    -0.11300
C738        C  0.84310430  0.11916687  0.42623527    -0.12900
C739        C  0.53550303  0.15119326  0.97973746    -0.11300
C740        C  0.53652799  0.15156751  0.01519617    -0.12900
C741        C  0.45714950  0.16564720  0.12984487    -0.11300
C742        C  0.42585493  0.17156211  0.14467957    -0.12900
C743        C  0.59880771  0.17621499  0.14296044    -0.11300
C744        C  0.62814130  0.18473300  0.16195061    -0.12900
C745        C  0.45510328  0.35459618  0.24787994    -0.14500
C746        C  0.44682794  0.31589095  0.24842084    -0.29700
H747        H  0.43165018  0.37585160  0.24476006     0.14500
H748        H  0.47090216  0.29533875  0.25189573     0.15100
C749        C  0.59659497  0.32725640  0.26489299    -0.14500
C750        C  0.63415416  0.33988185  0.26625960    -0.29700
H751        H  0.58975740  0.29586827  0.26478973     0.14500
H752        H  0.64044383  0.37137179  0.26537741     0.15100
C753        C  0.89096864  0.41916586  0.82628699    -0.11300
C754        C  0.87224679  0.38962359  0.81872444    -0.12900
C755        C  0.90462370  0.56050399  0.81962794    -0.11300
C756        C  0.88699179  0.59019452  0.81192958    -0.12900
C757        C  0.80442020  0.40735674  0.63404206    -0.14500
C758        C  0.79016061  0.40331156  0.67030745    -0.29700
H759        H  0.81175323  0.38099992  0.61714025     0.14500
H760        H  0.78265776  0.42942544  0.68750098     0.15100
C761        C  0.80686534  0.55553668  0.62835907    -0.14500
C762        C  0.79523195  0.56271907  0.66519800    -0.29700
H763        H  0.81367703  0.58027421  0.60957323     0.14500
H764        H  0.78829980  0.53798068  0.68395096     0.15100
C765        C  0.60860054  0.78647195  0.85584951    -0.11300
C766        C  0.63542105  0.78104004  0.83364827    -0.12900
C767        C  0.53711929  0.50170588  0.73582427    -0.11300
C768        C  0.53661983  0.46602565  0.73883911    -0.12900
C769        C  0.60761083  0.62742645  0.71741575    -0.14500
C770        C  0.64160796  0.61706559  0.73434062    -0.29700
H771        H  0.60486247  0.65652109  0.70473459     0.14500
H772        H  0.64411464  0.58843043  0.74806421     0.15100
C773        C  0.86010282  0.00393913  0.50837471    -0.11300
C774        C  0.86249516  0.96838147  0.51023990    -0.12900
C775        C  0.85740149  0.84054904  0.57451550    -0.11300
C776        C  0.84944110  0.81851957  0.60077193    -0.12900
C777        C  0.66775335  0.73733148  0.57255386    -0.14500
C778        C  0.70288878  0.72121889  0.57978991    -0.29700
H779        H  0.65066425  0.74770464  0.59738113     0.14500
H780        H  0.72004986  0.71037908  0.55522372     0.15100
C781        C  0.70550004  0.72852458  0.41761980    -0.14500
C782        C  0.66902464  0.74169403  0.42375690    -0.29700
H783        H  0.72293938  0.71894930  0.44270331     0.14500
H784        H  0.65161911  0.75101422  0.39854511     0.15100
C785        C  0.84766401  0.82670759  0.40589207    -0.11300
C786        C  0.85551362  0.84620640  0.43481873    -0.12900
C787        C  0.54465195  0.79131859  0.98411269    -0.11300
C788        C  0.54281222  0.79137908  0.01971352    -0.12900
C789        C  0.63899706  0.77749553  0.16411619    -0.11300
C790        C  0.60833709  0.78206522  0.14643273    -0.12900
C791        C  0.55532921  0.49716093  0.24628050    -0.11300
C792        C  0.55161112  0.46199771  0.24899177    -0.12900
C793        C  0.60709634  0.63344359  0.25340835    -0.14500
C794        C  0.64488946  0.62283866  0.25173381    -0.29700
H795        H  0.59976940  0.66442235  0.25688794     0.14500
H796        H  0.65179080  0.59196879  0.24648161     0.15100
C797        C  0.90635104  0.56065325  0.18924043    -0.11300
C798        C  0.89042251  0.59156304  0.19613132    -0.12900
C799        C  0.89598992  0.41811723  0.19236470    -0.11300
C800        C  0.87729935  0.38867412  0.19980703    -0.12900
C801        C  0.83207036  0.47520421  0.47908117    -0.11300
C802        C  0.83321552  0.47448831  0.51433211    -0.12900
C803        C  0.80839886  0.56513584  0.37306234    -0.14500
C804        C  0.79494575  0.57248587  0.33680347    -0.29700
H805        H  0.81854606  0.58912532  0.39241234     0.14500
H806        H  0.78474139  0.54818117  0.31784704     0.15100
C807        C  0.79471044  0.42222621  0.34916708    -0.14500
C808        C  0.79604787  0.38476834  0.36125517    -0.29700
H809        H  0.78810808  0.42846694  0.31849973     0.14500
H810        H  0.80329117  0.37878526  0.39185728     0.15100
C811        C  0.46668007  0.62820234  0.72340787    -0.14500
C812        C  0.43178813  0.61556605  0.73608681    -0.29700
H813        H  0.47014188  0.65890421  0.71522748     0.14500
H814        H  0.42828427  0.58504269  0.74485293     0.15100
C815        C  0.46911149  0.78024767  0.86300331    -0.11300
C816        C  0.43966063  0.77333036  0.84431091    -0.12900
C817        C  0.05514182  0.47470855  0.83276347    -0.11300
C818        C  0.01996790  0.47827929  0.83387056    -0.12900
C819        C  0.19214666  0.57838703  0.81339809    -0.11300
C820        C  0.17544707  0.54808793  0.82072287    -0.12900
C821        C  0.30343927  0.54514847  0.66038472    -0.14500
C822        C  0.28593811  0.57742783  0.64685838    -0.29700
H823        H  0.31339674  0.54383901  0.69091181     0.14500
H824        H  0.27573150  0.57881416  0.61642897     0.15100
C825        C  0.22917362  0.82547943  0.61245387    -0.11300
C826        C  0.22408621  0.84118041  0.58120813    -0.12900
C827        C  0.51487584  0.76021715  0.49916670    -0.11300
C828        C  0.55005415  0.76130067  0.49706022    -0.12900
C829        C  0.40535974  0.73937472  0.58618226    -0.14500
C830        C  0.36853638  0.72705247  0.59274769    -0.29700
H831        H  0.42445221  0.74849556  0.61068946     0.14500
H832        H  0.34966886  0.71811416  0.56798674     0.15100
C833        C  0.44386739  0.31166508  0.74163631    -0.14500
C834        C  0.45013719  0.35077402  0.74545885    -0.29700
H835        H  0.46857579  0.29232925  0.73634625     0.14500
H836        H  0.42556767  0.37055124  0.74954579     0.15100
C837        C  0.46061950  0.16264054  0.85817213    -0.11300
C838        C  0.42999854  0.16757329  0.84065878    -0.12900
C839        C  0.32124881  0.40531114  0.65767483    -0.14500
C840        C  0.30538406  0.37183421  0.64330657    -0.29700
H841        H  0.33093540  0.40756801  0.68829755     0.14500
H842        H  0.29444554  0.37020267  0.61305217     0.15100
C843        C  0.19706684  0.37807554  0.80007317    -0.11300
C844        C  0.17806593  0.40674224  0.80862301    -0.12900
C845        C  0.22229763  0.98800037  0.49128009    -0.11300
C846        C  0.22148884  0.95257490  0.49397674    -0.12900
C847        C  0.22775080  0.13050723  0.59369149    -0.11300
C848        C  0.22453664  0.11170556  0.56351560    -0.12900
C849        C  0.23755457  0.11189876  0.42298646    -0.11300
C850        C  0.24378506  0.13160930  0.39452093    -0.12900
C851        C  0.54846882  0.23805633  0.50579935    -0.11300
C852        C  0.51265783  0.23867915  0.50502869    -0.12900
C853        C  0.38203688  0.24867814  0.56646944    -0.14500
C854        C  0.39108901  0.23115673  0.60018499    -0.29700
H855        H  0.35280344  0.26065285  0.56226202     0.14500
H856        H  0.42004042  0.21834570  0.60391557     0.15100
C857        C  0.38979077  0.25051416  0.42608084    -0.14500
C858        C  0.39949148  0.23187385  0.39265354    -0.29700
H859        H  0.36139025  0.26476732  0.42777830     0.14500
H860        H  0.42743588  0.21680309  0.39071041     0.15100
C861        C  0.46585145  0.60497389  0.23750719    -0.14500
C862        C  0.45733262  0.64162696  0.24888333    -0.29700
H863        H  0.44259292  0.58410259  0.22919268     0.14500
H864        H  0.48095080  0.66172899  0.25822906     0.15100
C865        C  0.43515306  0.77804759  0.15682250    -0.11300
C866        C  0.46558012  0.78315130  0.13930306    -0.12900
C867        C  0.40085810  0.72222721  0.40590798    -0.14500
C868        C  0.38712095  0.72256617  0.44280429    -0.29700
H869        H  0.43172862  0.72867182  0.40094869     0.14500
H870        H  0.35610097  0.71709392  0.44787560     0.15100
C871        C  0.24020775  0.80014453  0.41209063    -0.11300
C872        C  0.23301907  0.82009215  0.44074895    -0.12900
C873        C  0.05685341  0.47957918  0.16616703    -0.11300
C874        C  0.02152625  0.48146123  0.16790650    -0.12900
C875        C  0.18540264  0.54156776  0.17830661    -0.11300
C876        C  0.20582801  0.56922864  0.18830175    -0.12900
C877        C  0.17322981  0.40176095  0.18674826    -0.11300
C878        C  0.19091089  0.37293531  0.19642491    -0.12900
C879        C  0.30153797  0.47353634  0.49877140    -0.11300
C880        C  0.30407357  0.47441016  0.53415366    -0.12900
C881        C  0.30010214  0.54595847  0.37741915    -0.14500
C882        C  0.30724821  0.55230812  0.33917995    -0.29700
H883        H  0.29481667  0.57134317  0.39652037     0.14500
H884        H  0.31374853  0.52725548  0.32007399     0.15100
C885        C  0.29249728  0.39665245  0.37747660    -0.14500
C886        C  0.29668876  0.39006697  0.33873970    -0.29700
H887        H  0.28749439  0.37156143  0.39635118     0.14500
H888        H  0.30265075  0.41516876  0.32013395     0.15100
C889        C  0.11341333  0.28579389  0.36638042    -0.11300
C890        C  0.14320074  0.27940217  0.34855761    -0.12900
C891        C  0.97199931  0.28657040  0.35395603    -0.11300
C892        C  0.94219253  0.28092068  0.33501523    -0.12900
C893        C  0.13006508  0.12081595  0.24585938    -0.14500
C894        C  0.09274656  0.13225507  0.24077294    -0.29700
H895        H  0.13578439  0.08986561  0.25129193     0.14500
H896        H  0.08635053  0.16316815  0.23603955     0.15100
C897        C  0.95034118  0.10629742  0.24436200    -0.14500
C898        C  0.94294866  0.14346911  0.23404742    -0.29700
H899        H  0.92656967  0.08670225  0.25285589     0.14500
H900        H  0.96712071  0.16221391  0.22476521     0.15100
C901        C  0.97620686  0.67242401  0.36102869    -0.11300
C902        C  0.94655630  0.68142784  0.34344299    -0.12900
C903        C  0.11752305  0.65460881  0.36815186    -0.11300
C904        C  0.14850610  0.65885966  0.35163798    -0.12900
C905        C  0.04429363  0.96160733  0.25375189    -0.11300
C906        C  0.04113975  0.99695039  0.25186077    -0.12900
C907        C  0.98139659  0.83075067  0.25191648    -0.14500
C908        C  0.94476708  0.84452131  0.25611421    -0.29700
H909        H  0.98592626  0.79924015  0.24802349     0.14500
H910        H  0.94035070  0.87586284  0.26137842     0.15100
C911        C  0.12497763  0.84404491  0.25975957    -0.14500
C912        C  0.12929291  0.80474738  0.25683077    -0.29700
H913        H  0.15063127  0.86322431  0.26325933     0.14500
H914        H  0.10358559  0.78584127  0.25214966     0.15100
C915        C  0.03995788  0.64843028  0.48657917    -0.11300
C916        C  0.03830395  0.64783056  0.52208863    -0.12900
C917        C  0.13422456  0.66746943  0.66820320    -0.11300
C918        C  0.10638355  0.65826780  0.64790681    -0.12900
C919        C  0.93955795  0.67466709  0.66352957    -0.11300
C920        C  0.96719571  0.66519458  0.64404728    -0.12900
C921        C  0.11923234  0.85485613  0.75182308    -0.14500
C922        C  0.12745875  0.82035872  0.76834081    -0.29700
H923        H  0.14255273  0.87304171  0.73991616     0.14500
H924        H  0.10361569  0.80299029  0.78051350     0.15100
C925        C  0.97656546  0.82695592  0.75465416    -0.14500
C926        C  0.93921322  0.83914012  0.75086236    -0.29700
H927        H  0.98278595  0.79619808  0.76043880     0.14500
H928        H  0.93341061  0.86985662  0.74443272     0.15100
C929        C  0.02999850  0.30277646  0.51825026    -0.11300
C930        C  0.03289477  0.30154880  0.48280431    -0.12900
C931        C  0.10382732  0.29022280  0.63910067    -0.11300
C932        C  0.13483012  0.28259952  0.65475471    -0.12900
C933        C  0.96130535  0.29469296  0.64335599    -0.11300
C934        C  0.93171282  0.29043375  0.66249665    -0.12900
C935        C  0.02548014  0.95867642  0.72806399    -0.11300
C936        C  0.02151785  0.99357397  0.72517751    -0.12900
C937        C  0.11120538  0.14418640  0.74820823    -0.14500
C938        C  0.09987876  0.11164655  0.72816100    -0.29700
H939        H  0.08926184  0.16044949  0.76459536     0.14500
H940        H  0.12195156  0.09490297  0.71247677     0.15100
C941        C  0.94607662  0.15125350  0.75443253    -0.14500
C942        C  0.95161766  0.11612227  0.73679439    -0.29700
H943        H  0.97132368  0.16726189  0.76683927     0.14500
H944        H  0.92611453  0.09982217  0.72535913     0.15100
C945        C  0.39609012  0.04686584  0.29978113    -0.11300
C946        C  0.37737596  0.07581256  0.29269344    -0.12900
C947        C  0.39623940  0.90559741  0.30960369    -0.11300
C948        C  0.37802260  0.87511369  0.30555033    -0.12900
C949        C  0.27285515  0.03336875  0.15312947    -0.14500
C950        C  0.27360758  0.07035521  0.13931567    -0.29700
H951        H  0.27089091  0.02873831  0.18462585     0.14500
H952        H  0.27641351  0.07469028  0.10782669     0.15100
C953        C  0.28462654  0.88915211  0.13543281    -0.14500
C954        C  0.27439366  0.88186197  0.17247674    -0.29700
H955        H  0.29407568  0.86520797  0.11623245     0.14500
H956        H  0.26426100  0.90587311  0.19123840     0.15100
C957        C  0.69308243  0.08445287  0.70141185    -0.11300
C958        C  0.67700947  0.05260736  0.69618469    -0.12900
C959        C  0.69123346  0.87671380  0.69361633    -0.11300
C960        C  0.67461830  0.90807925  0.69060300    -0.12900
C961        C  0.79331980  0.04687854  0.84404068    -0.14500
C962        C  0.79337270  0.08482219  0.85597114    -0.29700
H963        H  0.79269396  0.03972670  0.81271797     0.14500
H964        H  0.79225056  0.09136535  0.88738667     0.15100
C965        C  0.77816878  0.90480758  0.86858508    -0.14500
C966        C  0.78012414  0.89675331  0.83001691    -0.29700
H967        H  0.77588095  0.88100550  0.88951295     0.14500
H968        H  0.78360774  0.92083586  0.80954939     0.15100
C969        C  0.33779720  0.31754803  0.09714820    -0.11300
C970        C  0.34692491  0.33486800  0.06806265    -0.12900
C971        C  0.33968393  0.31378699  0.89736050    -0.11300
C972        C  0.34824927  0.33250772  0.92678671    -0.12900
C973        C  0.18468269  0.22893055  0.05841579    -0.14500
C974        C  0.17235059  0.22949655  0.09589085    -0.29700
H975        H  0.21519251  0.22256249  0.05214165     0.14500
H976        H  0.14184052  0.23621105  0.10189873     0.15100
C977        C  0.16269080  0.24759277  0.91608452    -0.14500
C978        C  0.19307241  0.22493122  0.90682106    -0.29700
H979        H  0.14758050  0.26433531  0.89355135     0.14500
H980        H  0.20744490  0.20807795  0.92979792     0.15100
C981        C  0.73290732  0.62977861  0.06880589    -0.11300
C982        C  0.74173025  0.64738320  0.09878585    -0.12900
C983        C  0.72348610  0.62820694  0.92729348    -0.11300
C984        C  0.73098090  0.64594029  0.89784695    -0.12900
C985        C  0.89665103  0.75416725  0.10235086    -0.14500
C986        C  0.88427217  0.75357703  0.06458360    -0.29700
H987        H  0.92803323  0.75343563  0.10872693     0.14500
H988        H  0.85300877  0.75364373  0.05764614     0.15100
C989        C  0.91057829  0.74306018  0.92200152    -0.14500
C990        C  0.87352125  0.75206751  0.91236638    -0.29700
H991        H  0.93082587  0.73386033  0.89927089     0.14500
H992        H  0.85388044  0.76181919  0.93546073     0.15100
C993        C  0.51737536  0.98148018  0.68755995    -0.11300
C994        C  0.55293532  0.98167276  0.68756671    -0.12900
C995        C  0.38756519  0.04145599  0.69154830    -0.11300
C996        C  0.36577257  0.06886293  0.69675995    -0.12900
C997        C  0.38070805  0.87189975  0.70204755    -0.11300
C998        C  0.39939117  0.90118769  0.69513434    -0.12900
C999        C  0.28743249  0.97261199  0.02201680    -0.11300
C1000       C  0.28810941  0.97387931  0.98667569    -0.12900
C1001       C  0.27960168  0.05820198  0.87366710    -0.14500
C1002       C  0.26806780  0.06357488  0.83635741    -0.29700
H1003       H  0.28848293  0.08318142  0.89234229     0.14500
H1004       H  0.25808341  0.03840600  0.81844566     0.15100
C1005       C  0.27922021  0.91473764  0.85401850    -0.14500
C1006       C  0.28844660  0.87831645  0.86566120    -0.29700
H1007       H  0.27138910  0.91977796  0.82337853     0.14500
H1008       H  0.29730044  0.87364946  0.89610965     0.15100
C1009       C  0.55438291  0.97970869  0.31777468    -0.11300
C1010       C  0.51898160  0.97896183  0.31743195    -0.12900
C1011       C  0.67624883  0.05203773  0.30164145    -0.11300
C1012       C  0.69332458  0.08267995  0.29528852    -0.12900
C1013       C  0.67696759  0.90963935  0.31341197    -0.11300
C1014       C  0.69469600  0.87922247  0.30982920    -0.12900
C1015       C  0.79449325  0.99492720  0.97947656    -0.11300
C1016       C  0.79546497  0.99333889  0.01501301    -0.12900
C1017       C  0.79251827  0.04866463  0.14913968    -0.14500
C1018       C  0.78525380  0.08554545  0.13721531    -0.29700
H1019       H  0.79694367  0.04301881  0.18029396     0.14500
H1020       H  0.77946277  0.09084848  0.10619346     0.15100
C1021       C  0.79663503  0.89890039  0.16659000    -0.14500
C1022       C  0.79334803  0.90491944  0.12758204    -0.29700
H1023       H  0.80124098  0.92413908  0.18636766     0.14500
H1024       H  0.78993164  0.87994555  0.10729850     0.15100
C1025       C  0.70534450  0.50714787  0.99924222    -0.11300
C1026       C  0.70428755  0.47164614  0.00113492    -0.12900
C1027       C  0.71827395  0.35354298  0.07846897    -0.11300
C1028       C  0.72541083  0.33632794  0.10856196    -0.12900
C1029       C  0.71860999  0.34508467  0.93619334    -0.11300
C1030       C  0.72551635  0.32705895  0.90624659    -0.12900
C1031       C  0.05796878  0.27238191  0.00660369    -0.11300
C1032       C  0.02288020  0.27470742  0.00745553    -0.12900
C1033       C  0.90208785  0.25542496  0.07643278    -0.14500
C1034       C  0.86479815  0.24369365  0.08173472    -0.29700
H1035       H  0.92019631  0.26245062  0.10230731     0.14500
H1036       H  0.84642876  0.23626150  0.05616966     0.15100
C1037       C  0.87096346  0.23860989  0.91956857    -0.14500
C1038       C  0.90605263  0.25524967  0.92756333    -0.29700
H1039       H  0.85394564  0.22716690  0.94379014     0.14500
H1040       H  0.92336060  0.26619121  0.90333196     0.15100
C1041       C  0.36692040  0.49153970  0.99979079    -0.11300
C1042       C  0.36746807  0.45597796  0.99886473    -0.12900
C1043       C  0.34764350  0.61610348  0.06878496    -0.11300
C1044       C  0.34073688  0.63451250  0.09851734    -0.12900
C1045       C  0.35214151  0.61164693  0.92727934    -0.11300
C1046       C  0.34531607  0.62946581  0.89773570    -0.12900
C1047       C  0.01812739  0.73434643  0.01651530    -0.11300
C1048       C  0.05338122  0.73111569  0.01719006    -0.12900
C1049       C  0.17836092  0.72605513  0.10694709    -0.14500
C1050       C  0.18882321  0.73311204  0.06972017    -0.29700
H1051       H  0.14771392  0.71970579  0.11313819     0.14500
H1052       H  0.21958855  0.73807595  0.06304280     0.15100
C1053       C  0.20082455  0.73556658  0.91966679    -0.14500
C1054       C  0.16275190  0.72876452  0.92694785    -0.29700
H1055       H  0.22073234  0.74302373  0.94408220     0.14500
H1056       H  0.14221074  0.72222369  0.90285424     0.15100
loop_ 
_geom_bond_atom_site_label_1 
_geom_bond_atom_site_label_2 
_geom_bond_distance 
_geom_bond_site_symmetry_2 
_ccdc_geom_bond_type 
C1            N2   1.355       .  A
C1            N6   1.361       .  A
C1         C1054   1.480       .  S
N2            C3   1.357   1_556  A
C3            N4   1.360       .  A
C3         C1048   1.436       .  S
N4            C5   1.363       .  A
C5            N6   1.357   1_554  A
C5         C1050   1.483       .  S
C7            N8   1.354   1_554  A
C7           N12   1.359       .  A
C7         C1043   1.434       .  S
N8            C9   1.355       .  A
C9           N10   1.355       .  A
C9         C1045   1.427       .  S
N10          C11   1.356       .  A
C11          N12   1.359   1_556  A
C11        C1041   1.435       .  S
C13          N14   1.354       .  A
C13          N18   1.374       .  A
C13        C1033   1.488       .  S
N14          C15   1.348       .  A
C15          N16   1.350   1_554  A
C15        C1032   1.423   1_655  S
N16          C17   1.354       .  A
C17          N18   1.375   1_556  A
C17        C1038   1.488       .  S
C19          N20   1.356       .  A
C19          N24   1.357   1_556  A
C19        C1029   1.434       .  S
N20          C21   1.356   1_556  A
C21          N22   1.359       .  A
C21        C1026   1.436       .  S
N22          C23   1.359       .  A
C23          N24   1.358       .  A
C23        C1027   1.439       .  S
C25          N26   1.360       .  A
C25          N30   1.360       .  A
C25        C1022   1.486       .  S
N26          C27   1.357   1_565  A
C27          N28   1.360       .  A
C27        C1017   1.479       .  S
N28          C29   1.357   1_545  A
C29          N30   1.361       .  A
C29        C1016   1.441       .  S
C31          N32   1.357       .  A
C31          N36   1.359   1_545  A
C31        C1011   1.440       .  S
N32          C33   1.357   1_545  A
C33          N34   1.356       .  A
C33        C1009   1.434       .  S
N34          C35   1.356       .  A
C35          N36   1.359       .  A
C35        C1013   1.435       .  S
C37          N38   1.352       .  A
C37          N42   1.359   1_545  A
C37        C1001   1.469       .  S
N38          C39   1.353   1_545  A
C39          N40   1.359       .  A
C39        C1000   1.428       .  S
N40          C41   1.361       .  A
C41          N42   1.355       .  A
C41        C1005   1.477       .  S
C43          N44   1.351       .  A
C43          N48   1.357       .  A
C43         C998   1.427       .  S
N44          C45   1.351   1_565  A
C45          N46   1.363       .  A
C45         C995   1.437       .  S
N46          C47   1.364   1_545  A
C47          N48   1.358       .  A
C47         C993   1.443       .  S
C49          N50   1.363       .  A
C49          N54   1.360   1_554  A
C49         C986   1.487       .  S
N50          C51   1.357       .  A
C51          N52   1.355   1_554  A
C51        C1047   1.435   1_655  S
N52          C53   1.355       .  A
C53          N54   1.364       .  A
C53         C989   1.480       .  S
C55          N56   1.356       .  A
C55          N60   1.354   1_554  A
C55         C981   1.431       .  S
N56          C57   1.356   1_554  A
C57          N58   1.359       .  A
C57        C1025   1.436       .  S
N58          C59   1.359       .  A
C59          N60   1.355       .  A
C59         C983   1.433       .  S
C61          N62   1.364       .  A
C61          N66   1.350       .  A
C61         C977   1.472       .  S
N62          C63   1.359   1_556  A
C63          N64   1.359       .  A
C63         C973   1.482       .  S
N64          C65   1.356       .  A
C65          N66   1.352   1_554  A
C65        C1031   1.423       .  S
C67          N68   1.354       .  A
C67          N72   1.359       .  A
C67         C972   1.433       .  S
N68          C69   1.354   1_556  A
C69          N70   1.355       .  A
C69         C970   1.426       .  S
N70          C71   1.356   1_554  A
C71          N72   1.360       .  A
C71        C1042   1.435       .  S
C73          N74   1.352       .  A
C73          N78   1.362       .  A
C73         C965   1.475       .  S
N74          C75   1.353       .  A
C75          N76   1.364   1_565  A
C75        C1015   1.439       .  S
N76          C77   1.367       .  A
C77          N78   1.357   1_545  A
C77         C961   1.491       .  S
C79          N80   1.357       .  A
C79          N84   1.365   1_545  A
C79         C958   1.448       .  S
N80          C81   1.357   1_545  A
C81          N82   1.359       .  A
C81         C994   1.442       .  S
N82          C83   1.360       .  A
C83          N84   1.365       .  A
C83         C960   1.451       .  S
C85          N86   1.362   1_565  A
C85          N90   1.360       .  A
C85         C949   1.486   1_565  S
N86          C87   1.359   1_545  A
C87          N88   1.351       .  A
C87         C999   1.429       .  S
N88          C89   1.351       .  A
C89          N90   1.363       .  A
C89         C953   1.471       .  S
C91          N92   1.354       .  A
C91          N96   1.358       .  A
C91         C947   1.432       .  S
N92          C93   1.354   1_565  A
C93          N94   1.356       .  A
C93         C945   1.428       .  S
N94          C95   1.357   1_545  A
C95          N96   1.358       .  A
C95        C1010   1.434       .  S
C97          N98   1.356       .  A
C97         N102   1.377   1_655  A
C97         C942   1.487       .  S
N98          C99   1.349   1_655  A
C99         N100   1.347       .  A
C99         C936   1.421   1_545  S
N100        C101   1.350       .  A
C101        N102   1.376       .  A
C101        C938   1.487       .  S
C103        N104   1.361   1_655  A
C103        N108   1.364       .  A
C103        C933   1.451       .  S
N104        C105   1.360       .  A
C105        N106   1.354       .  A
C105        C931   1.437       .  S
N106        C107   1.354       .  A
C107        N108   1.363   1_455  A
C107        C929   1.440       .  S
C109        N110   1.365       .  A
C109        N114   1.354       .  A
C109        C921   1.476       .  S
N110        C111   1.358       .  A
C111        N112   1.356       .  A
C111        C925   1.478   1_455  S
N112        C113   1.350       .  A
C113        N114   1.354       .  A
C113        C935   1.421       .  S
C115        N116   1.360       .  A
C115        N120   1.348       .  A
C115        C920   1.427   1_455  S
N116        C117   1.361       .  A
C117        N118   1.359       .  A
C117        C916   1.440       .  S
N118        C119   1.357       .  A
C119        N120   1.348       .  A
C119        C918   1.422       .  S
C121        N122   1.357       .  A
C121        N126   1.359       .  A
C121        C911   1.477       .  S
N122        C123   1.357       .  A
C123        N124   1.359       .  A
C123        C905   1.437       .  S
N124        C125   1.361       .  A
C125        N126   1.356       .  A
C125        C907   1.478   1_455  S
C127        N128   1.360       .  A
C127        N132   1.359       .  A
C127        C903   1.443       .  S
N128        C129   1.360       .  A
C129        N130   1.357       .  A
C129        C901   1.442   1_455  S
N130        C131   1.358       .  A
C131        N132   1.359       .  A
C131        C915   1.439       .  S
C133        N134   1.362   1_655  A
C133        N138   1.355       .  A
C133        C897   1.477       .  S
N134        C135   1.356       .  A
C135        N136   1.363       .  A
C135        C894   1.486       .  S
N136        C137   1.359       .  A
C137        N138   1.356   1_455  A
C137        C906   1.436   1_545  S
C139        N140   1.361       .  A
C139        N144   1.357       .  A
C139        C889   1.439       .  S
N140        C141   1.361       .  A
C141        N142   1.356       .  A
C141        C930   1.441       .  S
N142        C143   1.356       .  A
C143        N144   1.356       .  A
C143        C891   1.434   1_455  S
C145        N146   1.375       .  A
C145        N150   1.356       .  A
C145        C881   1.494       .  S
N146        C147   1.376       .  A
C147        N148   1.357       .  A
C147        C885   1.494       .  S
N148        C149   1.352       .  A
C149        N150   1.351       .  A
C149        C879   1.431       .  S
C151        N152   1.357       .  A
C151        N156   1.351       .  A
C151        C877   1.426       .  S
N152        C153   1.358       .  A
C153        N154   1.360       .  A
C153        C873   1.437       .  S
N154        C155   1.359       .  A
C155        N156   1.351       .  A
C155        C875   1.429       .  S
O157       Zr193   2.462       .  S
O157        C168   1.297       .  A
O158       Zr192   2.456       .  S
O158        C169   1.294       .  A
O159       Zr165   2.414       .  S
O159        C170   1.286       .  A
O160       Zr165   2.426       .  S
O160        C171   1.288       .  A
O161       Zr195   2.444       .  S
O161        C171   1.293       .  A
O162       Zr194   2.448       .  S
O162        C170   1.293       .  A
O163       Zr165   2.435       .  S
O163        C169   1.290       .  A
O164       Zr165   2.431       .  S
O164        C168   1.290       .  A
Zr165       O166   2.329       .  S
Zr165       O167   2.337       .  S
Zr165       O175   2.332       .  S
Zr165       O173   2.344       .  S
O166       Zr192   2.349       .  S
O166       Zr195   2.337       .  S
O167       Zr193   2.344       .  S
O167       Zr194   2.347       .  S
C168       C1049   1.481       .  S
C169        C904   1.442       .  S
C170        C876   1.428       .  S
C171        C912   1.473       .  S
H172        O173   0.966       .  S
O173       Zr192   2.342       .  S
O173       Zr194   2.348       .  S
H174        O175   0.965       .  S
O175       Zr193   2.345       .  S
O175       Zr195   2.338       .  S
O176       Zr192   2.448       .  S
O176        C199   1.295       .  A
O177       Zr193   2.460       .  S
O177        C200   1.295       .  A
O178       Zr194   2.445       .  S
O178        C201   1.292       .  A
O179       Zr195   2.432       .  S
O179        C202   1.290       .  A
O180       Zr195   2.411       .  S
O180        C203   1.286       .  A
O181       Zr194   2.432       .  S
O181        C204   1.290       .  A
O182       Zr196   2.378       .  S
O182        C205   1.280       .  A
O183       Zr196   2.423       .  S
O183        C206   1.287       .  A
O184       Zr194   2.469       .  S
O184        C205   1.298       .  A
O185       Zr195   2.443       .  S
O185        C206   1.291       .  A
O186       Zr192   2.485       .  S
O186        C201   1.302       .  A
O187       Zr193   2.449       .  S
O187        C204   1.293       .  A
O188       Zr193   2.457       .  S
O188        C203   1.297       .  A
O189       Zr192   2.448       .  S
O189        C202   1.293       .  A
O190       Zr196   2.432       .  S
O190        C199   1.290       .  A
O191       Zr196   2.453       .  S
O191        C200   1.293       .  A
Zr192       O198   2.349       .  S
Zr192       O210   2.361       .  S
Zr193       O197   2.346       .  S
Zr193       O208   2.344       .  S
Zr194       O198   2.343       .  S
Zr194       O208   2.338       .  S
Zr195       O197   2.342       .  S
Zr195       O210   2.335       .  S
Zr196       O197   2.326       .  S
Zr196       O198   2.352       .  S
Zr196       O210   2.333       .  S
Zr196       O208   2.335       .  S
C199        C867   1.473       .  S
C200        C865   1.449       .  S
C201        C882   1.499       .  S
C202        C871   1.433       .  S
C203        C954   1.470       .  S
C204       C1044   1.434       .  S
C205        C862   1.460       .  S
C206        C948   1.431       .  S
H207        O208   0.966       .  S
H209        O210   0.966       .  S
C211        N212   1.347       .  A
C211        N216   1.366       .  A
C211        C857   1.471       .  S
N212        C213   1.345       .  A
C213        N214   1.366       .  A
C213        C853   1.473       .  S
N214        C215   1.366       .  A
C215        N216   1.368       .  A
C215        C852   1.458       .  S
C217        N218   1.359       .  A
C217        N222   1.353       .  A
C217        C849   1.432       .  S
N218        C219   1.360       .  A
C219        N220   1.356       .  A
C219        C845   1.435   1_545  S
N220        C221   1.355       .  A
C221        N222   1.353       .  A
C221        C848   1.426       .  S
O223       Zr259   2.401       .  S
O223        C234   1.285       .  A
O224       Zr258   2.432       .  S
O224        C235   1.290       .  A
O225       Zr231   2.442       .  S
O225        C236   1.290       .  A
O226       Zr231   2.383       .  S
O226        C237   1.281       .  A
O227       Zr261   2.473       .  S
O227        C237   1.299       .  A
O228       Zr260   2.428       .  S
O228        C236   1.287       .  A
O229       Zr231   2.447       .  S
O229        C235   1.293       .  A
O230       Zr231   2.456       .  S
O230        C234   1.297       .  A
Zr231       O232   2.349       .  S
Zr231       O233   2.321       .  S
Zr231       O241   2.352       .  S
Zr231       O239   2.331       .  S
O232       Zr258   2.339       .  S
O232       Zr261   2.324       .  S
O233       Zr259   2.358       .  S
O233       Zr260   2.329       .  S
C234       C1002   1.464       .  S
C235        C971   1.433       .  S
C236        C838   1.436       .  S
C237        C978   1.465       .  S
H238        O239   0.966       .  S
O239       Zr258   2.349       .  S
O239       Zr260   2.319       .  S
H240        O241   0.964       .  S
O241       Zr259   2.345       .  S
O241       Zr261   2.339       .  S
O242       Zr258   2.442       .  S
O242        C265   1.295       .  A
O243       Zr259   2.426       .  S
O243        C266   1.288       .  A
O244       Zr260   2.431       .  S
O244        C267   1.290       .  A
O245       Zr261   2.419       .  S
O245        C268   1.286       .  A
O246       Zr261   2.404       .  S
O246        C269   1.284       .  A
O247       Zr260   2.410       .  S
O247        C270   1.285       .  A
O248       Zr262   2.486       .  S
O248        C271   1.302       .  A
O249       Zr262   2.455       .  S
O249        C272   1.295       .  A
O250       Zr260   2.390       .  S
O250        C271   1.281       .  A
O251       Zr261   2.434       .  S
O251        C272   1.290       .  A
O252       Zr258   2.442       .  S
O252        C267   1.293       .  A
O253       Zr259   2.475       .  S
O253        C270   1.298       .  A
O254       Zr259   2.513       .  S
O254        C269   1.307       .  A
O255       Zr258   2.458       .  S
O255        C268   1.294       .  A
O256       Zr262   2.397       .  S
O256        C265   1.284       .  A
O257       Zr262   2.433       .  S
O257        C266   1.290       .  A
Zr258       O264   2.333       .  S
Zr258       O276   2.336       .  S
Zr259       O263   2.326       .  S
Zr259       O274   2.352       .  S
Zr260       O264   2.326       .  S
Zr260       O274   2.350       .  S
Zr261       O263   2.350       .  S
Zr261       O276   2.348       .  S
Zr262       O263   2.343       .  S
Zr262       O264   2.331       .  S
Zr262       O276   2.358       .  S
Zr262       O274   2.330       .  S
C265        C840   1.460       .  S
C266        C847   1.425       .  S
C267        C833   1.473       .  S
C268        C843   1.436       .  S
C269        C937   1.492       .  S
C270        C996   1.436       .  S
C271        C854   1.477       .  S
C272        C932   1.436       .  S
H273        O274   0.967       .  S
H275        O276   0.966       .  S
C277        N278   1.357       .  A
C277        N282   1.358       .  A
C277        C868   1.477       .  S
N278        C279   1.362       .  A
C279        N280   1.355       .  A
C279        C829   1.475       .  S
N280        C281   1.355       .  A
C281        N282   1.354       .  A
C281        C827   1.427       .  S
C283        N284   1.357       .  A
C283        N288   1.357       .  A
C283        C826   1.435       .  S
N284        C285   1.358       .  A
C285        N286   1.357       .  A
C285        C846   1.435       .  S
N286        C287   1.357       .  A
C287        N288   1.356       .  A
C287        C872   1.434       .  S
C289        N290   1.358       .  A
C289        N294   1.348       .  A
C289        C821   1.452       .  S
N290        C291   1.356       .  A
C291        N292   1.355       .  A
C291        C880   1.430       .  S
N292        C293   1.358       .  A
C293        N294   1.346       .  A
C293        C839   1.457       .  S
C295        N296   1.354       .  A
C295        N300   1.362       .  A
C295        C844   1.437       .  S
N296        C297   1.354       .  A
C297        N298   1.352       .  A
C297        C820   1.425       .  S
N298        C299   1.354       .  A
C299        N300   1.362       .  A
C299        C817   1.434       .  S
O301       Zr337   2.411       .  S
O301        C312   1.286       .  A
O302       Zr336   2.398       .  S
O302        C313   1.283       .  A
O303       Zr309   2.394       .  S
O303        C314   1.284       .  A
O304       Zr309   2.431       .  S
O304        C315   1.289       .  A
O305       Zr339   2.428       .  S
O305        C315   1.288       .  A
O306       Zr338   2.478       .  S
O306        C314   1.300       .  A
O307       Zr309   2.453       .  S
O307        C313   1.293       .  A
O308       Zr309   2.464       .  S
O308        C312   1.297       .  A
Zr309       O310   2.333       .  S
Zr309       O311   2.342       .  S
Zr309       O319   2.327       .  S
Zr309       O317   2.353       .  S
O310       Zr336   2.344       .  S
O310       Zr339   2.329       .  S
O311       Zr337   2.333       .  S
O311       Zr338   2.339       .  S
C312       C1053   1.474       .  S
C313        C917   1.422       .  S
C314        C922   1.469       .  S
C315        C819   1.425       .  S
H316        O317   0.966       .  S
O317       Zr336   2.331       .  S
O317       Zr338   2.344       .  S
H318        O319   0.966       .  S
O319       Zr337   2.332       .  S
O319       Zr339   2.333       .  S
O320       Zr336   2.416       .  S
O320        C343   1.286       .  A
O321       Zr337   2.408       .  S
O321        C344   1.284       .  A
O322       Zr338   2.441       .  S
O322        C345   1.291       .  A
O323       Zr339   2.422       .  S
O323        C346   1.292       .  A
O324       Zr339   2.429       .  S
O324        C347   1.289       .  A
O325       Zr338   2.449       .  S
O325        C348   1.295       .  A
O326       Zr340   2.421       .  S
O326        C349   1.288       .  A
O327       Zr340   2.477       .  S
O327        C350   1.301       .  A
O328       Zr338   2.453       .  S
O328        C349   1.295       .  A
O329       Zr339   2.415       .  S
O329        C350   1.287       .  A
O330       Zr336   2.435       .  S
O330        C345   1.289       .  A
O331       Zr337   2.427       .  S
O331        C348   1.289       .  A
O332       Zr337   2.429       .  S
O332        C347   1.289       .  A
O333       Zr336   2.413       .  S
O333        C346   1.285       .  A
O334       Zr340   2.448       .  S
O334        C343   1.294       .  A
O335       Zr340   2.436       .  S
O335        C344   1.290       .  A
Zr336       O342   2.320       .  S
Zr336       O354   2.333       .  S
Zr337       O341   2.337       .  S
Zr337       O352   2.329       .  S
Zr338       O342   2.346       .  S
Zr338       O352   2.353       .  S
Zr339       O341   2.335       .  S
Zr339       O354   2.340       .  S
Zr340       O341   2.333       .  S
Zr340       O342   2.348       .  S
Zr340       O354   2.322       .  S
Zr340       O352   2.358       .  S
C343        C830   1.471       .  S
C344        C816   1.420       .  S
C345        C825   1.435       .  S
C346        C822   1.462       .  S
C347       C1046   1.425       .  S
C348       C1006   1.477       .  S
C349        C997   1.427       .  S
C350        C812   1.483       .  S
H351        O352   0.967       .  S
H353        O354   0.965       .  S
C355        N356   1.359       .  A
C355        N360   1.356       .  A
C355        C807   1.477       .  S
N356        C357   1.355       .  A
C357        N358   1.352       .  A
C357        C801   1.422       .  S
N358        C359   1.351       .  A
C359        N360   1.361       .  A
C359        C803   1.470       .  S
C361        N362   1.356       .  A
C361        N366   1.359       .  A
C361        C797   1.436       .  S
N362        C363   1.357       .  A
C363        N364   1.359       .  A
C363        C874   1.437   1_655  S
N364        C365   1.359       .  A
C365        N366   1.358       .  A
C365        C799   1.442       .  S
C367        N368   1.357       .  A
C367        N372   1.364       .  A
C367        C793   1.484       .  S
N368        C369   1.361       .  A
C369        N370   1.348       .  A
C369        C861   1.467       .  S
N370        C371   1.350       .  A
C371        N372   1.361       .  A
C371        C791   1.428       .  S
C373        N374   1.357       .  A
C373        N378   1.360       .  A
C373        C790   1.440       .  S
N374        C375   1.357       .  A
C375        N376   1.362       .  A
C375        C788   1.444       .  S
N376        C377   1.362       .  A
C377        N378   1.361       .  A
C377        C866   1.449       .  S
O379       Zr415   2.428       .  S
O379        C390   1.289       .  A
O380       Zr414   2.434       .  S
O380        C391   1.289       .  A
O381       Zr387   2.476       .  S
O381        C392   1.299       .  A
O382       Zr387   2.459       .  S
O382        C393   1.296       .  A
O383       Zr417   2.438       .  S
O383        C393   1.292       .  A
O384       Zr416   2.416       .  S
O384        C392   1.288       .  A
O385       Zr387   2.437       .  S
O385        C391   1.290       .  A
O386       Zr387   2.461       .  S
O386        C390   1.296       .  A
Zr387       O388   2.353       .  S
Zr387       O389   2.338       .  S
Zr387       O397   2.351       .  S
Zr387       O395   2.348       .  S
O388       Zr414   2.323       .  S
O388       Zr417   2.352       .  S
O389       Zr415   2.329       .  S
O389       Zr416   2.345       .  S
C390       C1021   1.480       .  S
C391        C982   1.431       .  S
C392        C985   1.478       .  S
C393        C789   1.440       .  S
H394        O395   0.967       .  S
O395       Zr414   2.335       .  S
O395       Zr416   2.345       .  S
H396        O397   0.967       .  S
O397       Zr415   2.338       .  S
O397       Zr417   2.368       .  S
O398       Zr414   2.400       .  S
O398        C421   1.284       .  A
O399       Zr415   2.411       .  S
O399        C422   1.285       .  A
O400       Zr416   2.448       .  S
O400        C423   1.292       .  A
O401       Zr417   2.473       .  S
O401        C424   1.299       .  A
O402       Zr417   2.442       .  S
O402        C425   1.292       .  A
O403       Zr416   2.440       .  S
O403        C426   1.293       .  A
O404       Zr418   2.447       .  S
O404        C427   1.292       .  A
O405       Zr418   2.428       .  S
O405        C428   1.289       .  A
O406       Zr416   2.440       .  S
O406        C427   1.291       .  A
O407       Zr417   2.491       .  S
O407        C428   1.303       .  A
O408       Zr414   2.425       .  S
O408        C423   1.288       .  A
O409       Zr415   2.443       .  S
O409        C426   1.292       .  A
O410       Zr415   2.437       .  S
O410        C425   1.290       .  A
O411       Zr414   2.419       .  S
O411        C424   1.287       .  A
O412       Zr418   2.455       .  S
O412        C421   1.296       .  A
O413       Zr418   2.448       .  S
O413        C422   1.293       .  A
Zr414       O420   2.336       .  S
Zr414       O432   2.350       .  S
Zr415       O419   2.341       .  S
Zr415       O430   2.344       .  S
Zr416       O420   2.331       .  S
Zr416       O430   2.334       .  S
Zr417       O419   2.339       .  S
Zr417       O432   2.337       .  S
Zr418       O419   2.344       .  S
Zr418       O420   2.335       .  S
Zr418       O432   2.351       .  S
Zr418       O430   2.340       .  S
C421        C804   1.464       .  S
C422        C785   1.424       .  S
C423        C798   1.434       .  S
C424        C794   1.480       .  S
C425       C1014   1.434       .  S
C426        C908   1.480       .  S
C427        C902   1.441       .  S
C428        C781   1.494       .  S
H429        O430   0.965       .  S
H431        O432   0.965       .  S
C433        N434   1.374       .  A
C433        N438   1.354       .  A
C433        C777   1.488       .  S
N434        C435   1.375       .  A
C435        N436   1.357       .  A
C435        C782   1.491       .  S
N436        C437   1.351       .  A
C437        N438   1.349       .  A
C437        C828   1.427       .  S
C439        N440   1.364       .  A
C439        N444   1.349       .  A
C439        C775   1.432       .  S
N440        C441   1.364       .  A
C441        N442   1.359       .  A
C441        C774   1.444       .  S
N442        C443   1.357       .  A
C443        N444   1.348       .  A
C443        C786   1.424       .  S
C445        N446   1.349       .  A
C445        N450   1.362       .  A
C445        C769   1.469       .  S
N446        C447   1.349       .  A
C447        N448   1.366       .  A
C447        C811   1.478       .  S
N448        C449   1.367       .  A
C449        N450   1.362       .  A
C449        C767   1.451       .  S
C451        N452   1.355       .  A
C451        N456   1.348       .  A
C451        C815   1.420       .  S
N452        C453   1.357       .  A
C453        N454   1.365       .  A
C453        C787   1.444       .  S
N454        C455   1.365       .  A
C455        N456   1.349       .  A
C455        C765   1.435       .  S
C457        N458   1.371       .  A
C457        N462   1.353       .  A
C457        C757   1.480       .  S
N458        C459   1.372       .  A
C459        N460   1.354       .  A
C459        C761   1.483       .  S
N460        C461   1.350       .  A
C461        N462   1.348       .  A
C461        C802   1.421       .  S
C463        N464   1.360       .  A
C463        N468   1.356       .  A
C463        C755   1.438       .  S
N464        C465   1.361       .  A
C465        N466   1.355       .  A
C465        C818   1.435   1_655  S
N466        C467   1.354       .  A
C467        N468   1.355       .  A
C467        C753   1.430       .  S
O469       Zr505   2.403       .  S
O469        C480   1.285       .  A
O470       Zr504   2.406       .  S
O470        C481   1.285       .  A
O471       Zr477   2.434       .  S
O471        C482   1.290       .  A
O472       Zr477   2.436       .  S
O472        C483   1.292       .  A
O473       Zr507   2.436       .  S
O473        C483   1.291       .  A
O474       Zr506   2.450       .  S
O474        C482   1.292       .  A
O475       Zr477   2.463       .  S
O475        C481   1.296       .  A
O476       Zr477   2.478       .  S
O476        C480   1.300       .  A
Zr477       O478   2.346       .  S
Zr477       O479   2.345       .  S
Zr477       O487   2.348       .  S
Zr477       O485   2.347       .  S
O478       Zr504   2.347       .  S
O478       Zr507   2.330       .  S
O479       Zr505   2.342       .  S
O479       Zr506   2.334       .  S
C480        C990   1.475       .  S
C481        C919   1.427       .  S
C482        C756   1.438       .  S
C483        C926   1.472       .  S
H484        O485   0.965       .  S
O485       Zr504   2.345       .  S
O485       Zr506   2.328       .  S
H486        O487   0.967       .  S
O487       Zr505   2.341       .  S
O487       Zr507   2.334       .  S
O488       Zr504   2.432       .  S
O488        C511   1.290       .  A
O489       Zr505   2.403       .  S
O489        C512   1.284       .  A
O490       Zr506   2.407       .  S
O490        C513   1.284       .  A
O491       Zr507   2.396       .  S
O491        C514   1.282       .  A
O492       Zr507   2.397       .  S
O492        C515   1.283       .  A
O493       Zr506   2.422       .  S
O493        C516   1.287       .  A
O494       Zr508   2.452       .  S
O494        C517   1.297       .  A
O495       Zr508   2.465       .  S
O495        C518   1.296       .  A
O496       Zr506   2.422       .  S
O496        C517   1.288       .  A
O497       Zr507   2.439       .  S
O497        C518   1.290       .  A
O498       Zr504   2.487       .  S
O498        C513   1.302       .  A
O499       Zr505   2.447       .  S
O499        C516   1.292       .  A
O500       Zr505   2.460       .  S
O500        C515   1.296       .  A
O501       Zr504   2.473       .  S
O501        C514   1.297       .  A
O502       Zr508   2.484       .  S
O502        C511   1.303       .  A
O503       Zr508   2.478       .  S
O503        C512   1.299       .  A
Zr504       O510   2.339       .  S
Zr504       O522   2.346       .  S
Zr505       O509   2.328       .  S
Zr505       O520   2.342       .  S
Zr506       O510   2.352       .  S
Zr506       O520   2.339       .  S
Zr507       O509   2.325       .  S
Zr507       O522   2.334       .  S
Zr508       O509   2.339       .  S
Zr508       O510   2.354       .  S
Zr508       O522   2.345       .  S
Zr508       O520   2.354       .  S
C511        C778   1.492       .  S
C512        C766   1.434       .  S
C513        C762   1.484       .  S
C514        C776   1.431       .  S
C515        C966   1.466       .  S
C516        C984   1.432       .  S
C517        C770   1.476       .  S
C518        C959   1.449       .  S
H519        O520   0.966       .  S
H521        O522   0.967       .  S
C523        N524   1.365       .  A
C523        N528   1.357       .  A
C523        C745   1.484       .  S
N524        C525   1.357       .  A
C525        N526   1.358       .  A
C525        C749   1.482       .  S
N526        C527   1.352       .  A
C527        N528   1.358       .  A
C527        C792   1.430       .  S
C529        N530   1.360       .  A
C529        N534   1.359       .  A
C529        C743   1.442       .  S
N530        C531   1.360       .  A
C531        N532   1.353       .  A
C531        C740   1.432       .  S
N532        C533   1.352       .  A
C533        N534   1.359       .  A
C533        C741   1.430       .  S
O535       Zr571   2.432       .  S
O535        C546   1.289       .  A
O536       Zr570   2.436       .  S
O536        C547   1.290       .  A
O537       Zr543   2.444       .  S
O537        C548   1.291       .  A
O538       Zr543   2.409       .  S
O538        C549   1.286       .  A
O539       Zr573   2.464       .  S
O539        C549   1.298       .  A
O540       Zr572   2.447       .  S
O540        C548   1.292       .  A
O541       Zr543   2.443       .  S
O541        C547   1.292       .  A
O542       Zr543   2.477       .  S
O542        C546   1.301       .  A
Zr543       O544   2.357       .  S
Zr543       O545   2.326       .  S
Zr543       O553   2.343       .  S
Zr543       O551   2.338       .  S
O544       Zr570   2.335       .  S
O544       Zr573   2.336       .  S
O545       Zr571   2.341       .  S
O545       Zr572   2.337       .  S
C546       C1034   1.494       .  S
C547        C892   1.433       .  S
C548        C800   1.442       .  S
C549        C898   1.470       .  S
H550        O551   0.966       .  S
O551       Zr570   2.344       .  S
O551       Zr572   2.332       .  S
H552        O553   0.966       .  S
O553       Zr571   2.346       .  S
O553       Zr573   2.359       .  S
O554       Zr570   2.431       .  S
O554        C577   1.290       .  A
O555       Zr571   2.441       .  S
O555        C578   1.291       .  A
O556       Zr572   2.456       .  S
O556        C579   1.296       .  A
O557       Zr573   2.480       .  S
O557        C580   1.298       .  A
O558       Zr573   2.448       .  S
O558        C581   1.295       .  A
O559       Zr572   2.450       .  S
O559        C582   1.293       .  A
O560       Zr574   2.465       .  S
O560        C583   1.297       .  A
O561       Zr574   2.456       .  S
O561        C584   1.295       .  A
O562       Zr572   2.416       .  S
O562        C583   1.288       .  A
O563       Zr573   2.439       .  S
O563        C584   1.291       .  A
O564       Zr570   2.419       .  S
O564        C579   1.288       .  A
O565       Zr571   2.437       .  S
O565        C582   1.290       .  A
O566       Zr571   2.442       .  S
O566        C581   1.292       .  A
O567       Zr570   2.437       .  S
O567        C580   1.289       .  A
O568       Zr574   2.459       .  S
O568        C577   1.296       .  A
O569       Zr574   2.450       .  S
O569        C578   1.293       .  A
Zr570       O576   2.342       .  S
Zr570       O588   2.334       .  S
Zr571       O575   2.339       .  S
Zr571       O586   2.341       .  S
Zr572       O576   2.347       .  S
Zr572       O586   2.352       .  S
Zr573       O575   2.357       .  S
Zr573       O588   2.347       .  S
Zr574       O575   2.351       .  S
Zr574       O576   2.349       .  S
Zr574       O588   2.350       .  S
Zr574       O586   2.345       .  S
C577        C733   1.479       .  S
C578        C744   1.442       .  S
C579        C808   1.473       .  S
C580        C737   1.453       .  S
C581       C1018   1.480       .  S
C582       C1028   1.438       .  S
C583        C750   1.473       .  S
C584       C1012   1.440       .  S
H585        O586   0.966       .  S
H587        O588   0.966       .  S
C589        N590   1.357       .  A
C589        N594   1.358       .  A
C589        C834   1.479       .  S
N590        C591   1.358       .  A
C591        N592   1.366       .  A
C591        C768   1.451       .  S
N592        C593   1.368       .  A
C593        N594   1.355       .  A
C593        C729   1.488       .  S
C595        N596   1.358       .  A
C595        N600   1.358       .  A
C595        C837   1.437       .  S
N596        C597   1.357       .  A
C597        N598   1.354       .  A
C597        C727   1.431       .  S
N598        C599   1.354       .  A
C599        N600   1.358       .  A
C599        C739   1.432       .  S
C601        N602   1.357       .  A
C601        N606   1.371       .  A
C601        C723   1.497       .  S
N602        C603   1.360       .  A
C603        N604   1.358       .  A
C603        C734   1.484       .  S
N604        C605   1.359       .  A
C605        N606   1.369       .  A
C605        C851   1.457       .  S
C607        N608   1.364       .  A
C607        N612   1.361       .  A
C607        C738   1.454       .  S
N608        C609   1.363       .  A
C609        N610   1.358       .  A
C609        C721   1.449       .  S
N610        C611   1.358       .  A
C611        N612   1.361       .  A
C611        C773   1.445       .  S
O613       Zr649   2.406       .  S
O613        C624   1.285       .  A
O614       Zr648   2.451       .  S
O614        C625   1.294       .  A
O615       Zr621   2.421       .  S
O615        C626   1.288       .  A
O616       Zr621   2.437       .  S
O616        C627   1.290       .  A
O617       Zr651   2.432       .  S
O617        C627   1.288       .  A
O618       Zr650   2.491       .  S
O618        C626   1.303       .  A
O619       Zr621   2.475       .  S
O619        C625   1.299       .  A
O620       Zr621   2.505       .  S
O620        C624   1.306       .  A
Zr621       O622   2.349       .  S
Zr621       O623   2.347       .  S
Zr621       O631   2.336       .  S
Zr621       O629   2.359       .  S
O622       Zr648   2.358       .  S
O622       Zr651   2.335       .  S
O623       Zr649   2.354       .  S
O623       Zr650   2.345       .  S
C624       C1037   1.489       .  S
C625        C934   1.451       .  S
C626        C941   1.492       .  S
C627        C754   1.430       .  S
H628        O629   0.965       .  S
O629       Zr648   2.364       .  S
O629       Zr650   2.337       .  S
H630        O631   0.964       .  S
O631       Zr649   2.338       .  S
O631       Zr651   2.325       .  S
O632       Zr648   2.511       .  S
O632        C655   1.306       .  A
O633       Zr649   2.443       .  S
O633        C656   1.291       .  A
O634       Zr650   2.468       .  S
O634        C657   1.297       .  A
O635       Zr651   2.421       .  S
O635        C658   1.287       .  A
O636       Zr651   2.438       .  S
O636        C659   1.290       .  A
O637       Zr650   2.488       .  S
O637        C660   1.301       .  A
O638       Zr652   2.481       .  S
O638        C661   1.300       .  A
O639       Zr652   2.497       .  S
O639        C662   1.303       .  A
O640       Zr650   2.438       .  S
O640        C661   1.291       .  A
O641       Zr651   2.406       .  S
O641        C662   1.285       .  A
O642       Zr648   2.447       .  S
O642        C657   1.293       .  A
O643       Zr649   2.416       .  S
O643        C660   1.287       .  A
O644       Zr649   2.432       .  S
O644        C659   1.289       .  A
O645       Zr648   2.472       .  S
O645        C658   1.300       .  A
O646       Zr652   2.413       .  S
O646        C655   1.286       .  A
O647       Zr652   2.421       .  S
O647        C656   1.287       .  A
Zr648       O654   2.347       .  S
Zr648       O666   2.337       .  S
Zr649       O653   2.331       .  S
Zr649       O664   2.325       .  S
Zr650       O654   2.369       .  S
Zr650       O664   2.358       .  S
Zr651       O653   2.342       .  S
Zr651       O666   2.353       .  S
Zr652       O653   2.339       .  S
Zr652       O654   2.352       .  S
Zr652       O666   2.352       .  S
Zr652       O664   2.352       .  S
C655        C724   1.494       .  S
C656        C728   1.430       .  S
C657        C722   1.449       .  S
C658        C758   1.486       .  S
C659       C1030   1.433       .  S
C660        C962   1.485       .  S
C661        C957   1.448       .  S
C662        C730   1.485       .  S
H663        O664   0.965       .  S
H665        O666   0.967       .  S
O667       Zr703   2.458       .  S
O667        C678   1.296       .  A
O668       Zr702   2.447       .  S
O668        C679   1.292       .  A
O669       Zr675   2.476       .  S
O669        C680   1.299       .  A
O670       Zr675   2.423       .  S
O670        C681   1.288       .  A
O671       Zr705   2.446       .  S
O671        C681   1.293       .  A
O672       Zr704   2.410       .  S
O672        C680   1.286       .  A
O673       Zr675   2.442       .  S
O673        C679   1.292       .  A
O674       Zr675   2.433       .  S
O674        C678   1.291       .  A
Zr675       O676   2.354       .  S
Zr675       O677   2.339       .  S
Zr675       O685   2.357       .  S
Zr675       O683   2.329       .  S
O676       Zr702   2.333       .  S
O676       Zr705   2.349       .  S
O677       Zr703   2.348       .  S
O677       Zr704   2.339       .  S
C678        C974   1.479       .  S
C679        C890   1.439       .  S
C680        C893   1.480       .  S
C681        C878   1.427       .  S
H682        O683   0.966       .  S
O683       Zr702   2.365       .  S
O683       Zr704   2.352       .  S
H684        O685   0.966       .  S
O685       Zr703   2.335       .  S
O685       Zr705   2.350       .  S
O686       Zr702   2.459       .  S
O686        C709   1.299       .  A
O687       Zr703   2.448       .  S
O687        C710   1.293       .  A
O688       Zr704   2.430       .  S
O688        C711   1.290       .  A
O689       Zr705   2.413       .  S
O689        C712   1.286       .  A
O690       Zr705   2.422       .  S
O690        C713   1.287       .  A
O691       Zr704   2.472       .  S
O691        C714   1.298       .  A
O692       Zr706   2.425       .  S
O692        C715   1.287       .  A
O693       Zr706   2.394       .  S
O693        C716   1.283       .  A
O694       Zr704   2.428       .  S
O694        C715   1.288       .  A
O695       Zr705   2.485       .  S
O695        C716   1.300       .  A
O696       Zr702   2.453       .  S
O696        C711   1.295       .  A
O697       Zr703   2.428       .  S
O697        C714   1.290       .  A
O698       Zr703   2.434       .  S
O698        C713   1.290       .  A
O699       Zr702   2.508       .  S
O699        C712   1.306       .  A
O700       Zr706   2.424       .  S
O700        C709   1.287       .  A
O701       Zr706   2.417       .  S
O701        C710   1.286       .  A
Zr702       O708   2.355       .  S
Zr702       O720   2.336       .  S
Zr703       O707   2.342       .  S
Zr703       O718   2.345       .  S
Zr704       O708   2.344       .  S
Zr704       O718   2.325       .  S
Zr705       O707   2.333       .  S
Zr705       O720   2.335       .  S
Zr706       O707   2.337       .  S
Zr706       O708   2.319       .  S
Zr706       O720   2.345       .  S
Zr706       O718   2.330       .  S
C709        C858   1.481       .  S
C710        C742   1.428       .  S
C711        C850   1.432       .  S
C712        C886   1.495       .  S
C713        C969   1.425       .  S
C714        C950   1.483       .  S
C715        C946   1.427       .  S
C716        C746   1.474       .  S
H717        O718   0.966       .  S
H719        O720   0.966       .  S
C721        C722   1.214       .  T
C723        C724   1.343       .  D
C723        H725   1.086       .  S
C724        H726   1.087       .  S
C727        C728   1.203       .  T
C729        C730   1.339       .  D
C729        H731   1.086       .  S
C730        H732   1.087       .  S
C733        C734   1.345       .  D
C733        H735   1.087       .  S
C734        H736   1.086       .  S
C737        C738   1.216       .  T
C739        C740   1.204   1_556  T
C741        C742   1.202       .  T
C743        C744   1.210       .  T
C745        C746   1.339       .  D
C745        H747   1.086       .  S
C746        H748   1.087       .  S
C749        C750   1.343       .  D
C749        H751   1.086       .  S
C750        H752   1.087       .  S
C753        C754   1.203       .  T
C755        C756   1.207       .  T
C757        C758   1.339       .  D
C757        H759   1.087       .  S
C758        H760   1.087       .  S
C761        C762   1.337       .  D
C761        H763   1.087       .  S
C762        H764   1.087       .  S
C765        C766   1.206       .  T
C767        C768   1.215       .  T
C769        C770   1.337       .  D
C769        H771   1.087       .  S
C770        H772   1.087       .  S
C773        C774   1.211   1_545  T
C775        C776   1.204       .  T
C777        C778   1.341       .  D
C777        H779   1.087       .  S
C778        H780   1.087       .  S
C781        C782   1.342       .  D
C781        H783   1.087       .  S
C782        H784   1.087       .  S
C785        C786   1.200       .  T
C787        C788   1.211   1_556  T
C789        C790   1.209       .  T
C791        C792   1.202       .  T
C793        C794   1.341       .  D
C793        H795   1.087       .  S
C794        H796   1.087       .  S
C797        C798   1.206       .  T
C799        C800   1.210       .  T
C801        C802   1.197       .  T
C803        C804   1.335       .  D
C803        H805   1.087       .  S
C804        H806   1.087       .  S
C807        C808   1.342       .  D
C807        H809   1.087       .  S
C808        H810   1.087       .  S
C811        C812   1.338       .  D
C811        H813   1.087       .  S
C812        H814   1.087       .  S
C815        C816   1.197       .  T
C817        C818   1.206       .  T
C819        C820   1.200       .  T
C821        C822   1.336       .  D
C821        H823   1.087       .  S
C822        H824   1.087       .  S
C825        C826   1.206       .  T
C827        C828   1.201       .  T
C829        C830   1.340       .  D
C829        H831   1.087       .  S
C830        H832   1.087       .  S
C833        C834   1.344       .  D
C833        H835   1.087       .  S
C834        H836   1.086       .  S
C837        C838   1.207       .  T
C839        C840   1.333       .  D
C839        H841   1.087       .  S
C840        H842   1.088       .  S
C843        C844   1.207       .  T
C845        C846   1.206       .  T
C847        C848   1.200       .  T
C849        C850   1.204       .  T
C851        C852   1.219       .  T
C853        C854   1.332       .  D
C853        H855   1.087       .  S
C854        H856   1.088       .  S
C857        C858   1.337       .  D
C857        H859   1.087       .  S
C858        H860   1.087       .  S
C861        C862   1.331       .  D
C861        H863   1.087       .  S
C862        H864   1.088       .  S
C865        C866   1.214       .  T
C867        C868   1.343       .  D
C867        H869   1.087       .  S
C868        H870   1.087       .  S
C871        C872   1.205       .  T
C873        C874   1.207       .  T
C875        C876   1.202       .  T
C877        C878   1.201       .  T
C879        C880   1.203       .  T
C881        C882   1.345       .  D
C881        H883   1.087       .  S
C882        H884   1.086       .  S
C885        C886   1.340       .  D
C885        H887   1.087       .  S
C886        H888   1.087       .  S
C889        C890   1.208       .  T
C891        C892   1.205       .  T
C893        C894   1.341       .  D
C893        H895   1.087       .  S
C894        H896   1.086       .  S
C897        C898   1.339       .  D
C897        H899   1.086       .  S
C898        H900   1.087       .  S
C901        C902   1.209       .  T
C903        C904   1.210       .  T
C905        C906   1.206       .  T
C907        C908   1.345       .  D
C907        H909   1.087       .  S
C908        H910   1.087       .  S
C911        C912   1.344       .  D
C911        H913   1.087       .  S
C912        H914   1.087       .  S
C915        C916   1.208       .  T
C917        C918   1.198       .  T
C919        C920   1.201       .  T
C921        C922   1.336       .  D
C921        H923   1.086       .  S
C922        H924   1.088       .  S
C925        C926   1.346       .  D
C925        H927   1.086       .  S
C926        H928   1.087       .  S
C929        C930   1.209       .  T
C931        C932   1.207       .  T
C933        C934   1.215       .  T
C935        C936   1.197       .  T
C937        C938   1.336       .  D
C937        H939   1.087       .  S
C938        H940   1.087       .  S
C941        C942   1.340       .  D
C941        H943   1.087       .  S
C942        H944   1.087       .  S
C945        C946   1.201       .  T
C947        C948   1.204       .  T
C949        C950   1.346       .  D
C949        H951   1.086       .  S
C950        H952   1.087       .  S
C953        C954   1.336       .  D
C953        H955   1.087       .  S
C954        H956   1.087       .  S
C957        C958   1.214       .  T
C959        C960   1.215       .  T
C961        C962   1.342       .  D
C961        H963   1.087       .  S
C962        H964   1.087       .  S
C965        C966   1.336       .  D
C965        H967   1.087       .  S
C966        H968   1.087       .  S
C969        C970   1.200       .  T
C971        C972   1.205       .  T
C973        C974   1.346       .  D
C973        H975   1.086       .  S
C974        H976   1.087       .  S
C977        C978   1.333       .  D
C977        H979   1.087       .  S
C978        H980   1.088       .  S
C981        C982   1.204       .  T
C983        C984   1.204       .  T
C985        C986   1.343       .  D
C985        H987   1.087       .  S
C986        H988   1.086       .  S
C989        C990   1.338       .  D
C989        H991   1.086       .  S
C990        H992   1.087       .  S
C993        C994   1.210       .  T
C995        C996   1.207       .  T
C997        C998   1.201       .  T
C999       C1000   1.202   1_554  T
C1001      C1002   1.336       .  D
C1001      H1003   1.087       .  S
C1002      H1004   1.088       .  S
C1005      C1006   1.341       .  D
C1005      H1007   1.087       .  S
C1006      H1008   1.087       .  S
C1009      C1010   1.205       .  T
C1011      C1012   1.208       .  T
C1013      C1014   1.205       .  T
C1015      C1016   1.208   1_556  T
C1017      C1018   1.345       .  D
C1017      H1019   1.087       .  S
C1018      H1020   1.087       .  S
C1021      C1022   1.346       .  D
C1021      H1023   1.087       .  S
C1022      H1024   1.086       .  S
C1025      C1026   1.206   1_556  T
C1027      C1028   1.208       .  T
C1029      C1030   1.205       .  T
C1031      C1032   1.198       .  T
C1033      C1034   1.341       .  D
C1033      H1035   1.087       .  S
C1034      H1036   1.086       .  S
C1037      C1038   1.337       .  D
C1037      H1039   1.087       .  S
C1038      H1040   1.087       .  S
C1041      C1042   1.205       .  T
C1043      C1044   1.205       .  T
C1045      C1046   1.200       .  T
C1047      C1048   1.206       .  T
C1049      C1050   1.343       .  D
C1049      H1051   1.087       .  S
C1050      H1052   1.086       .  S
C1053      C1054   1.341       .  D
C1053      H1055   1.087       .  S
C1054      H1056   1.086       .  S
