geometry optimzed in LAMMPS
_audit_creation_date              2020-11-30 
_audit_creation_method            'lammps2cif' 
_symmetry_space_group_name_H-M    'P1' 
_symmetry_Int_Tables_number       1 
_symmetry_cell_setting            triclinic 
loop_ 
_symmetry_equiv_pos_as_xyz 
  x,y,z 
_cell_length_a                    40.77804718 
_cell_length_b                    40.68939976842225 
_cell_length_c                    40.72074418644244 
_cell_angle_alpha                 90.23920402993356 
_cell_angle_beta                  89.84533937955179 
_cell_angle_gamma                 90.07566223558625 
loop_ 
_atom_site_label 
_atom_site_type_symbol 
_atom_site_fract_x 
_atom_site_fract_y 
_atom_site_fract_z 
_atom_site_charge 
C1          C  0.14949102  0.72187822  0.97347366     0.79300
N2          N  0.16646685  0.72515763  0.00194590    -0.79000
C3          C  0.15025801  0.72530428  0.03118509     0.81700
N4          N  0.11716849  0.72257763  0.03161512    -0.79000
C5          C  0.10046144  0.71946933  0.00314346     0.81800
N6          N  0.11651952  0.71912804  0.97416829    -0.80700
C7          C  0.33813777  0.59599165  0.03093885     0.79300
N8          N  0.33513988  0.61086287  0.00103169    -0.79000
C9          C  0.33876742  0.59336586  0.97253566     0.81700
N10         N  0.34438374  0.56053174  0.97407457    -0.79000
C11         C  0.34693736  0.54527782  0.00346423     0.81800
N12         N  0.34420630  0.56309063  0.03161176    -0.80700
C13         C  0.91339051  0.21933355  0.02980281     0.79300
N14         N  0.94652798  0.22191132  0.02902086    -0.79000
C15         C  0.96281741  0.22108112  0.00004939     0.81700
N16         N  0.94610395  0.21846183  0.97151147    -0.79000
C17         C  0.91299537  0.21643966  0.97196871     0.81800
N18         N  0.89662243  0.21667185  0.00108154    -0.80700
C19         C  0.72838106  0.35835884  0.97082574     0.79300
N20         N  0.72469327  0.39163759  0.97156208    -0.79000
C21         C  0.72310158  0.40816907  0.00062327     0.81700
N22         N  0.72575688  0.39116279  0.02925079    -0.79000
C23         C  0.72969264  0.35782446  0.02915764     0.81800
N24         N  0.73107480  0.34159177  0.99970747    -0.80700
C25         C  0.79717461  0.95283610  0.11699795     0.79300
N26         N  0.79955856  0.95424932  0.08393917    -0.79000
C27         C  0.79894191  0.98364493  0.06871984     0.81700
N28         N  0.79579891  0.01166865  0.08638720    -0.79000
C29         C  0.79428343  0.01043985  0.11961058     0.81800
N30         N  0.79503155  0.98090883  0.13483867    -0.80700
C31         C  0.65352306  0.01201491  0.31560508     0.79300
N32         N  0.62077468  0.01133406  0.32230854    -0.79000
C33         C  0.60473155  0.98229366  0.32644392     0.81700
N34         N  0.62168407  0.95359223  0.32324317    -0.79000
C35         C  0.65442108  0.95346866  0.31607355     0.81800
N36         N  0.67010444  0.98297767  0.31219211    -0.80700
C37         C  0.26622939  0.00289511  0.88367779     0.79300
N38         N  0.26125162  0.00268127  0.91647618    -0.79000
C39         C  0.25762940  0.97382430  0.93227570     0.81700
N40         N  0.25957130  0.94514935  0.91557716    -0.79000
C41         C  0.26391780  0.94508543  0.88260965     0.81800
N42         N  0.26700821  0.97415939  0.86661152    -0.80700
C43         C  0.41187473  0.94316693  0.69697739     0.79300
N44         N  0.44472643  0.94448169  0.69123539    -0.79000
C45         C  0.46044672  0.97382265  0.68878498     0.81700
N46         N  0.44316795  0.00215102  0.69169122    -0.79000
C47         C  0.41030665  0.00149870  0.69680728     0.81800
N48         N  0.39480326  0.97190372  0.69987213    -0.80700
C49         C  0.91213820  0.73527536  0.02661407     0.79300
N50         N  0.89656183  0.73597970  0.99732670    -0.79000
C51         C  0.91371446  0.73132747  0.96908319     0.81700
N52         N  0.94645088  0.72619110  0.97046539    -0.79000
C53         C  0.96192465  0.72651027  0.99973117     0.81800
N54         N  0.94489923  0.73105858  0.02772811    -0.80700
C55         C  0.73065338  0.60208084  0.02672572     0.79300
N56         N  0.72561101  0.56901034  0.02798570    -0.79000
C57         C  0.72223913  0.55117642  0.99983041     0.81700
N58         N  0.72415300  0.56659863  0.97030167    -0.79000
C59         C  0.72946003  0.59959331  0.96855768     0.81800
N60         N  0.73297039  0.61711659  0.99696741    -0.80700
C61         C  0.15320941  0.22119323  0.97285870     0.79300
N62         N  0.16863834  0.22022690  0.00222729    -0.79000
C63         C  0.15075815  0.22098246  0.03030951     0.81700
N64         N  0.11767547  0.22276944  0.02902672    -0.79000
C65         C  0.10242873  0.22396098  0.99965979     0.81800
N66         N  0.12009314  0.22298279  0.97155896    -0.80700
C67         C  0.33887942  0.35589677  0.96835467     0.92100
N68         N  0.34356977  0.38891644  0.97040489    -0.79000
C69         C  0.34808289  0.40355598  0.00014657     0.81700
N70         N  0.34699690  0.38522056  0.02791613    -0.79000
C71         C  0.34215893  0.35224870  0.02609197     0.81800
N72         N  0.33799903  0.33767552  0.99626561    -0.80700
C73         C  0.80369682  0.95097793  0.88057811     0.79300
N74         N  0.80501958  0.95207509  0.91374993    -0.79000
C75         C  0.80713377  0.98127578  0.92949659     0.81700
N76         N  0.80638731  0.00963756  0.91234239    -0.79000
C77         C  0.80495686  0.00869175  0.87918124     0.81800
N78         N  0.80392452  0.97941569  0.86327419    -0.80700
C79         C  0.65152107  0.00839676  0.69241993     0.79300
N80         N  0.61852035  0.00810887  0.68781028    -0.79000
C81         C  0.60200390  0.97920670  0.68454319     0.81700
N82         N  0.61864098  0.95040308  0.68636322    -0.79000
C83         C  0.65157146  0.95020063  0.69121362     0.81800
N84         N  0.66781801  0.97927378  0.69419757    -0.80700
C85         C  0.24720233  0.00632503  0.11982149     0.79300
N86         N  0.24207122  0.00498650  0.08702173    -0.79000
C87         C  0.24354820  0.97592369  0.07103277     0.81700
N88         N  0.24998404  0.94818404  0.08776656    -0.79000
C89         C  0.25384852  0.94883824  0.12066995     0.81800
N90         N  0.25291675  0.97814858  0.13673019    -0.80700
C91         C  0.41263422  0.95256484  0.31348486     0.79300
N92         N  0.44515093  0.95270873  0.32128154    -0.79000
C93         C  0.46192598  0.98140932  0.32529530     0.81700
N94         N  0.44587444  0.01044932  0.32169527    -0.79000
C95         C  0.41328954  0.01096386  0.31452418     0.81800
N96         N  0.39705785  0.98201089  0.30983557    -0.80700
C97         C  0.00281064  0.09723122  0.75100428     0.79300
N98         N  0.03163391  0.11381654  0.75234229    -0.79000
C99         C  0.05998078  0.09706074  0.75618165     0.81700
N100        N  0.05969485  0.06397787  0.75838891    -0.79000
C101        C  0.03094112  0.04759972  0.75695877     0.81800
N102        N  0.00244247  0.06409027  0.75339859    -0.80700
C103        C  0.00195404  0.28871870  0.62130892     0.79300
N104        N  0.02966755  0.28175869  0.63856636    -0.79000
C105        C  0.05958636  0.28108484  0.62361343     0.81700
N106        N  0.06144753  0.28672459  0.59070876    -0.79000
C107        C  0.03416734  0.29438115  0.57322000     0.81800
N108        N  0.00457927  0.29530450  0.58864213    -0.80700
C109        C  0.06337048  0.86005188  0.76523980     0.79300
N110        N  0.06231240  0.89320174  0.76437336    -0.79000
C111        C  0.03309118  0.90865353  0.76552801     0.81700
N112        N  0.00495837  0.89117701  0.76646372    -0.79000
C113        C  0.00551962  0.85797385  0.76804444     0.81800
N114        N  0.03506023  0.84254516  0.76741178    -0.80700
C115        C  0.00118416  0.67782347  0.62001955     0.79300
N116        N  0.00205457  0.67402919  0.58688770    -0.79000
C117        C  0.03111410  0.67122174  0.57087583     0.81700
N118        N  0.05956615  0.67259943  0.58801538    -0.79000
C119        C  0.05930567  0.67687865  0.62116267     0.81800
N120        N  0.02989743  0.67953877  0.63714635    -0.80700
C121        C  0.06323726  0.86124720  0.23594215     0.79300
N122        N  0.03453807  0.84486212  0.23159904    -0.79000
C123        C  0.00593105  0.86176799  0.23084137     0.81700
N124        N  0.00599541  0.89478415  0.23474879    -0.79000
C125        C  0.03459503  0.91090853  0.23922371     0.81800
N126        N  0.06316241  0.89424234  0.24002511    -0.80700
C127        C  0.06293899  0.67223503  0.38099309     0.79300
N128        N  0.03482581  0.67828323  0.36405794    -0.79000
C129        C  0.00508997  0.67852909  0.37931567     0.81700
N130        N  0.00372202  0.67410919  0.41234652    -0.79000
C131        C  0.03146009  0.66776981  0.42951477     0.81800
N132        N  0.06073078  0.66657070  0.41372727    -0.80700
C133        C  0.00571350  0.09935653  0.25257078     0.79300
N134        N  0.00600944  0.06609611  0.25224183    -0.79000
C135        C  0.03487952  0.04979462  0.25176438     0.81700
N136        N  0.06352682  0.06646047  0.25171739    -0.79000
C137        C  0.06326428  0.09963611  0.25231979     0.81800
N138        N  0.03445537  0.11618141  0.25247809    -0.80700
C139        C  0.06265271  0.28852236  0.37961920     0.79300
N140        N  0.06332050  0.29217902  0.41294970    -0.79000
C141        C  0.03507936  0.29514940  0.43060270     0.81700
N142        N  0.00580056  0.29446219  0.41475605    -0.79000
C143        C  0.00444350  0.29110202  0.38149730     0.81800
N144        N  0.03296252  0.28784170  0.36407342    -0.80700
C145        C  0.30270173  0.50870912  0.38087889     0.79300
N146        N  0.29916538  0.50854169  0.41389030    -0.79000
C147        C  0.29917635  0.47980452  0.43026015     0.81700
N148        N  0.30138446  0.45104702  0.41390475    -0.79000
C149        C  0.30356273  0.45087506  0.38087425     0.81800
N150        N  0.30493312  0.47971457  0.36446041    -0.80700
C151        C  0.15568903  0.45130445  0.20424232     0.79300
N152        N  0.17190911  0.48049292  0.20572615    -0.79000
C153        C  0.15492050  0.50921893  0.20589564     0.81700
N154        N  0.12166722  0.50871911  0.20481962    -0.79000
C155        C  0.10529486  0.47968749  0.20340994     0.81800
N156        N  0.12234640  0.45096474  0.20337425    -0.80700
O157        O  0.25007166  0.74024870  0.15125789    -0.87400
O158        O  0.21430705  0.69554954  0.32638670    -0.87600
O159        O  0.20768887  0.65902749  0.22300525    -0.89200
O160        O  0.18266586  0.76125040  0.23969090    -0.88000
O161        O  0.21005545  0.80711035  0.25824353    -0.87600
O162        O  0.25620205  0.63025511  0.22219245    -0.89000
O163        O  0.18379305  0.70255355  0.28037968    -0.87400
O164        O  0.20497177  0.72124194  0.17938580    -0.87000
Zr165      Zr  0.22119676  0.71605816  0.23589462     2.84300
O166        O  0.23704983  0.74712512  0.28143081    -1.09000
O167        O  0.26681614  0.69916358  0.20493076    -1.09700
C168        C  0.21993697  0.73066660  0.15323414     1.05700
C169        C  0.18668271  0.69524143  0.31095620     1.05600
C170        C  0.22455482  0.63236393  0.21975069     1.08600
C171        C  0.18417131  0.79165526  0.24861254     1.06400
H172        H  0.24274031  0.66371728  0.27555604     0.32000
O173        O  0.25474938  0.68305794  0.26804811    -1.30000
H174        H  0.23655770  0.77576900  0.20462914     0.31600
O175        O  0.25038828  0.76242474  0.21831085    -1.31600
O176        O  0.31607138  0.71287054  0.35050081    -0.87400
O177        O  0.35277141  0.75873433  0.17341943    -0.88900
O178        O  0.30277772  0.63150984  0.28362956    -0.87500
O179        O  0.25318015  0.80705915  0.32096985    -0.87500
O180        O  0.27095786  0.82976621  0.21747456    -0.87200
O181        O  0.31922100  0.65404822  0.18231372    -0.87100
O182        O  0.38510696  0.70001813  0.26726707    -0.87400
O183        O  0.35785097  0.80148992  0.28528997    -0.86900
O184        O  0.35958093  0.65435135  0.24625797    -0.87900
O185        O  0.31126495  0.83139208  0.27806379    -0.87100
O186        O  0.27906671  0.65656641  0.32824901    -0.87500
O187        O  0.31000243  0.69958091  0.15163408    -0.87200
O188        O  0.29029702  0.80186928  0.17221262    -0.86900
O189        O  0.25356554  0.75888313  0.35033094    -0.87300
O190        O  0.36161980  0.73403491  0.32511485    -0.87600
O191        O  0.38247605  0.75986874  0.22141118    -0.88900
Zr192      Zr  0.27010401  0.71386213  0.31369814     2.83100
Zr193      Zr  0.29646525  0.74523274  0.18836329     2.83500
Zr194      Zr  0.30137046  0.66770404  0.23764664     2.84100
Zr195      Zr  0.26739835  0.79292444  0.26422069     2.83400
Zr196      Zr  0.34653329  0.74485579  0.26772119     2.84200
O197        O  0.31331872  0.77664490  0.23382593    -1.09500
O198        O  0.31653373  0.69858779  0.28358070    -1.09000
C199        C  0.34631406  0.72176149  0.35016942     1.05700
C200        C  0.37964126  0.76215383  0.18979016     1.08300
C201        C  0.29217232  0.63177457  0.31329393     1.05800
C202        C  0.25024545  0.79039447  0.34779500     1.06200
C203        C  0.27997549  0.82785449  0.18710876     1.05800
C204        C  0.31819875  0.66910817  0.15460969     1.05300
C205        C  0.38485414  0.66976815  0.25797685     1.05800
C206        C  0.34193826  0.82896615  0.28539794     1.05300
H207        H  0.34956022  0.70664150  0.20929998     0.32000
O208        O  0.33071387  0.71390134  0.22149755    -1.30600
H209        H  0.30730136  0.77253477  0.31670288     0.32000
O210        O  0.30026892  0.76041432  0.29781377    -1.32000
C211        C  0.41346297  0.23502187  0.46866627     0.79300
N212        N  0.39625791  0.22754517  0.49600168    -0.79000
C213        C  0.41078855  0.22911733  0.52576620     0.81700
N214        N  0.44307421  0.23702397  0.52776788    -0.79000
C215        C  0.46033985  0.24371183  0.50008251     0.81800
N216        N  0.44548513  0.24295142  0.47056226    -0.80700
C217        C  0.23852042  0.09580049  0.47137446     0.79300
N218        N  0.23478588  0.11189883  0.50072221    -0.79000
C219        C  0.23211920  0.09492342  0.52943422     0.81700
N220        N  0.23200168  0.06164615  0.52846899    -0.79000
C221        C  0.23617961  0.04527239  0.49982504     0.81800
N222        N  0.23980602  0.06231547  0.47140248    -0.80700
O223        O  0.26933303  0.12348166  0.78504216    -0.87400
O224        O  0.31041345  0.30132901  0.81967511    -0.87600
O225        O  0.35649660  0.19379256  0.82387371    -0.89200
O226        O  0.25383106  0.21471216  0.85240080    -0.88000
O227        O  0.20674553  0.22921229  0.82523767    -0.87600
O228        O  0.38453632  0.19560757  0.77490345    -0.89000
O229        O  0.31306480  0.25380107  0.84983016    -0.87400
O230        O  0.28693126  0.15241794  0.83001249    -0.87000
Zr231      Zr  0.29838488  0.20860149  0.81316847     2.84300
O232        O  0.26658127  0.25398698  0.79733391    -1.09000
O233        O  0.31350299  0.17713807  0.76734368    -1.09700
C234        C  0.27654391  0.12600676  0.81578274     1.05700
C235        C  0.31472562  0.28534617  0.84680656     1.05600
C236        C  0.38311723  0.19160761  0.80633600     1.08600
C237        C  0.22301621  0.22183903  0.85116883     1.06400
H238        H  0.34884038  0.24986516  0.79037806     0.32000
O239        O  0.32972564  0.24194385  0.77876391    -1.30000
H240        H  0.23789626  0.17831907  0.79871362     0.31600
O241        O  0.25137383  0.19169029  0.78449445    -1.31600
O242        O  0.29408507  0.32282366  0.71546433    -0.87400
O243        O  0.24899977  0.14649787  0.68235686    -0.88900
O244        O  0.38126889  0.25778551  0.73323804    -0.87500
O245        O  0.20741563  0.29474104  0.78298140    -0.87500
O246        O  0.18272966  0.19108178  0.76555724    -0.87200
O247        O  0.35818857  0.15280922  0.71842769    -0.87100
O248        O  0.31032414  0.23301189  0.64888412    -0.87400
O249        O  0.20745436  0.24952732  0.67725292    -0.86900
O250        O  0.35742213  0.22021312  0.67556634    -0.87900
O251        O  0.17989076  0.25053849  0.72630354    -0.87100
O252        O  0.35294851  0.30343654  0.75056085    -0.87500
O253        O  0.31058418  0.12297746  0.72289382    -0.87200
O254        O  0.21000429  0.14520041  0.74704755    -0.86900
O255        O  0.25370084  0.32519905  0.77518045    -0.87300
O256        O  0.27403054  0.29422193  0.67092881    -0.87600
O257        O  0.24963173  0.19342062  0.65145179    -0.88900
Zr258      Zr  0.29746489  0.28666812  0.76234165     2.83100
Zr259      Zr  0.26658430  0.16038670  0.73851451     2.83500
Zr260      Zr  0.34474151  0.21033307  0.73272976     2.84100
Zr261      Zr  0.22008980  0.23715020  0.76831845     2.83400
Zr262      Zr  0.26592451  0.23770858  0.68795569     2.84200
O263        O  0.23463956  0.20523233  0.72263656    -1.09500
O264        O  0.31257440  0.25509673  0.71666666    -1.09000
C265        C  0.28462000  0.32040288  0.68540000     1.05700
C266        C  0.24560117  0.16221158  0.65494818     1.08300
C267        C  0.37898598  0.28866375  0.74045848     1.05800
C268        C  0.22293162  0.32256068  0.78196381     1.06200
C269        C  0.18422531  0.16064118  0.75686435     1.05800
C270        C  0.34172009  0.12550692  0.71757407     1.05300
C271        C  0.34133332  0.22749239  0.64949308     1.05800
C272        C  0.18099209  0.25295275  0.69472636     1.05300
H273        H  0.30501475  0.17983277  0.68492005     0.32000
O274        O  0.29825091  0.19266373  0.70377273    -1.30600
H275        H  0.23794859  0.28818404  0.72579062     0.32000
O276        O  0.25081938  0.26974850  0.73321235    -1.32000
C277        C  0.41361705  0.70577149  0.47378718     0.79300
N278        N  0.44646199  0.71032609  0.47395011    -0.79000
C279        C  0.46304638  0.71088593  0.50258020     0.81700
N280        N  0.44687827  0.70834529  0.53140310    -0.79000
C281        C  0.41400004  0.70436422  0.53157684     0.81800
N282        N  0.39740037  0.70255148  0.50280530    -0.80700
C283        C  0.23683543  0.85391481  0.53231787     0.79300
N284        N  0.23395669  0.88718468  0.53233019    -0.79000
C285        C  0.23308491  0.90392627  0.50358026     0.81700
N286        N  0.23586324  0.88750920  0.47468623    -0.79000
C287        C  0.23887318  0.85435041  0.47423449     0.81800
N288        N  0.23938707  0.83749999  0.50308584    -0.80700
C289        C  0.28740410  0.50021717  0.61903788     0.79300
N290        N  0.28683231  0.47096216  0.63481200    -0.79000
C291        C  0.28689991  0.44257477  0.61719203     0.81700
N292        N  0.28751751  0.44347975  0.58398296    -0.79000
C293        C  0.28806823  0.47276152  0.56848306     0.81800
N294        N  0.28818613  0.50103463  0.58588904    -0.80700
C295        C  0.14955145  0.44573286  0.79913127     0.79300
N296        N  0.11645591  0.44539875  0.80375756    -0.79000
C297        C  0.09924063  0.47395037  0.80524112     0.81700
N298        N  0.11514443  0.50308131  0.80258898    -0.79000
C299        C  0.14811532  0.50390633  0.79866321     0.81800
N300        N  0.16505590  0.47523668  0.79621396    -0.80700
O301        O  0.24748454  0.73480598  0.85270040    -0.87400
O302        O  0.21092657  0.69392313  0.67480242    -0.87600
O303        O  0.18127587  0.75874687  0.76487976    -0.89200
O304        O  0.20103367  0.65489010  0.77936267    -0.88000
O305        O  0.24777269  0.62348050  0.77759096    -0.87600
O306        O  0.21101375  0.80360593  0.74775841    -0.89000
O307        O  0.18045618  0.69914412  0.72184548    -0.87400
O308        O  0.20129843  0.71953396  0.82397481    -0.87000
Zr309      Zr  0.21751304  0.71144655  0.76734707     2.84300
O310        O  0.24941797  0.67692514  0.73443693    -1.09000
O311        O  0.24966828  0.75554904  0.78558288    -1.09700
C312        C  0.21669019  0.72768164  0.85036714     1.05700
C313        C  0.18338565  0.69368405  0.69068372     1.05600
C314        C  0.18432592  0.78926721  0.75692357     1.08600
C315        C  0.21645673  0.62720479  0.78090076     1.06400
H316        H  0.21736212  0.75001601  0.70950218     0.32000
O317        O  0.23561482  0.74177721  0.72210193    -1.30000
H318        H  0.25424443  0.67986769  0.81705123     0.31600
O319        O  0.26216301  0.69249246  0.79850170    -1.31600
O320        O  0.31407329  0.70860977  0.65197375    -0.87400
O321        O  0.35270917  0.74949832  0.82885229    -0.88900
O322        O  0.25590144  0.80077429  0.68314901    -0.87500
O323        O  0.29209341  0.62106607  0.71918289    -0.87500
O324        O  0.31053326  0.64408322  0.82118473    -0.87200
O325        O  0.26996696  0.82204251  0.78794702    -0.87100
O326        O  0.35855640  0.79096153  0.72066501    -0.87400
O327        O  0.37959517  0.68698045  0.73935699    -0.86900
O328        O  0.31253109  0.82266798  0.72615283    -0.87900
O329        O  0.35085049  0.64177009  0.75712660    -0.87100
O330        O  0.25598881  0.75310079  0.65279002    -0.87500
O331        O  0.28760238  0.79374368  0.83338759    -0.87200
O332        O  0.30987290  0.69127724  0.85207576    -0.86900
O333        O  0.27648000  0.65007410  0.67373109    -0.87300
O334        O  0.36011209  0.72468410  0.68008454    -0.87600
O335        O  0.38139908  0.74977051  0.78035825    -0.88900
Zr336      Zr  0.26775885  0.70731400  0.68933428     2.83100
Zr337      Zr  0.29472506  0.73694116  0.81610088     2.83500
Zr338      Zr  0.26741186  0.78608099  0.74036357     2.84100
Zr339      Zr  0.29451599  0.65896421  0.76515555     2.83400
Zr340      Zr  0.34393627  0.73445803  0.73667650     2.84200
O341        O  0.32668461  0.70361230  0.78219177    -1.09500
O342        O  0.29914424  0.75257450  0.70632193    -1.09000
C343        C  0.34495186  0.71518828  0.65395067     1.05700
C344        C  0.37951762  0.75263359  0.81185755     1.08300
C345        C  0.25363009  0.78464696  0.65577128     1.05800
C346        C  0.28525182  0.62342138  0.68839047     1.06200
C347        C  0.31406474  0.65992987  0.84856787     1.05800
C348        C  0.27805519  0.81995699  0.81847853     1.05300
C349        C  0.34333361  0.81888712  0.71977346     1.05800
C350        C  0.37713525  0.65644979  0.74739032     1.05300
H351        H  0.32537321  0.78631568  0.77850635     0.32000
O352        O  0.31244646  0.76790835  0.77092719    -1.30600
H353        H  0.32606707  0.67523254  0.70610491     0.32000
O354        O  0.31263299  0.68923295  0.71979454    -1.32000
C355        C  0.78282797  0.45510405  0.37995229     0.79300
N356        N  0.77839148  0.45558157  0.41279980    -0.79000
C357        C  0.77589642  0.48462198  0.42879509     0.81700
N358        N  0.77775816  0.51318307  0.41205807    -0.79000
C359        C  0.78233385  0.51246431  0.37914862     0.81800
N360        N  0.78469997  0.48348226  0.36299005    -0.80700
C361        C  0.91400736  0.51027982  0.20021860     0.79300
N362        N  0.89726081  0.48133753  0.20095341    -0.79000
C363        C  0.91352514  0.45207919  0.20187044     0.81700
N364        N  0.94674326  0.45186335  0.20272066    -0.79000
C365        C  0.96375093  0.48044569  0.20174275     0.81800
N366        N  0.94737493  0.50948046  0.20019079    -0.80700
C367        C  0.56482858  0.59460912  0.27470860     0.79300
N368        N  0.53695715  0.61291775  0.27635562    -0.79000
C369        C  0.50699439  0.59858690  0.27248852     0.81700
N370        N  0.50529786  0.56586510  0.26691471    -0.79000
C371        C  0.53276009  0.54748684  0.26636436     0.81800
N372        N  0.56246051  0.56168980  0.27038578    -0.80700
C373        C  0.56148961  0.77818596  0.12345083     0.79300
N374        N  0.56187146  0.78125532  0.09021196    -0.79000
C375        C  0.53330957  0.78224031  0.07307814     0.81700
N376        N  0.50426143  0.77975671  0.08929216    -0.79000
C377        C  0.50360936  0.77665761  0.12248162     0.81800
N378        N  0.53224052  0.77577039  0.13950614    -0.80700
O379        O  0.79775276  0.83306898  0.21718996    -0.87400
O380        O  0.75180100  0.65616361  0.17703843    -0.87600
O381        O  0.81395814  0.74412066  0.14806448    -0.89200
O382        O  0.71127611  0.76049131  0.17524127    -0.88000
O383        O  0.68269041  0.75711302  0.22378786    -0.87600
O384        O  0.86086945  0.73066658  0.17576362    -0.89000
O385        O  0.75383533  0.70441640  0.14806404    -0.87400
O386        O  0.78183011  0.80386011  0.17188176    -0.87000
Zr387      Zr  0.76910756  0.74773191  0.18685687     2.84300
O388        O  0.73663099  0.71438766  0.21992216    -1.09000
O389        O  0.81514256  0.76443926  0.21677056    -1.09700
C390        C  0.79148243  0.83037675  0.18626185     1.05700
C391        C  0.74947928  0.67303308  0.15010798     1.05600
C392        C  0.84493867  0.73818667  0.14966476     1.08600
C393        C  0.68448659  0.76117123  0.19245553     1.06400
H394        H  0.80796643  0.68997575  0.18246344     0.32000
O395        O  0.80083871  0.70219494  0.20165210    -1.30000
H396        H  0.74085736  0.79737170  0.22591105     0.31600
O397        O  0.75347953  0.77862893  0.23299661    -1.31600
O398        O  0.77644895  0.62967570  0.27744264    -0.87400
O399        O  0.81510784  0.80639395  0.32081091    -0.88900
O400        O  0.86024509  0.66294683  0.21518275    -0.87500
O401        O  0.68450192  0.69785678  0.26683816    -0.87500
O402        O  0.70909974  0.80254112  0.28283987    -0.87200
O403        O  0.88411461  0.76517614  0.23184668    -0.87100
O404        O  0.85697281  0.70309649  0.32387104    -0.87400
O405        O  0.75554132  0.72376071  0.35047040    -0.86900
O406        O  0.88520293  0.70375152  0.27528681    -0.87900
O407        O  0.70833333  0.73814561  0.32403126    -0.87100
O408        O  0.81339612  0.63211943  0.21865315    -0.87500
O409        O  0.85689505  0.81050719  0.25175545    -0.87200
O410        O  0.75604095  0.83289248  0.27830743    -0.86900
O411        O  0.71285138  0.65233986  0.24977983    -0.87300
O412        O  0.79441795  0.65750868  0.32341691    -0.87600
O413        O  0.81686362  0.75770361  0.34916626    -0.88900
Zr414      Zr  0.76828722  0.66884214  0.23440408     2.83100
Zr415      Zr  0.80010156  0.79521553  0.26295925     2.83500
Zr416      Zr  0.84671313  0.71917260  0.23192881     2.84100
Zr417      Zr  0.72183467  0.74489734  0.26679875     2.83400
Zr418      Zr  0.79961167  0.71561484  0.31090573     2.84200
O419        O  0.76825824  0.76142039  0.29617311    -1.09500
O420        O  0.81467889  0.68524585  0.26447914    -1.09000
C421        C  0.78594518  0.63139626  0.30744920     1.05700
C422        C  0.81964380  0.78914054  0.34718157     1.08300
C423        C  0.84457011  0.63535708  0.21348727     1.05800
C424        C  0.68675151  0.66675288  0.26061642     1.06200
C425        C  0.72508082  0.83019519  0.28446211     1.05800
C426        C  0.88246246  0.79569047  0.24014966     1.05300
C427        C  0.88365038  0.70039353  0.30681015     1.05800
C428        C  0.72479950  0.73117010  0.34997466     1.05300
H429        H  0.85080972  0.75729952  0.29016417     0.32000
O430        O  0.83169922  0.74981717  0.27828934    -1.30600
H431        H  0.74028669  0.68501975  0.29626988     0.32000
O432        O  0.75302012  0.69877516  0.28179545    -1.32000
C433        C  0.65010913  0.72855223  0.52883983     0.79300
N434        N  0.61718593  0.72661342  0.52813434    -0.79000
C435        C  0.60142499  0.72514576  0.49918088     0.81700
N436        N  0.61854235  0.72555833  0.47060668    -0.79000
C437        C  0.65177821  0.72757846  0.47127513     0.81800
N438        N  0.66762316  0.72890547  0.50051646    -0.80700
C439        C  0.83975773  0.85824337  0.52741039     0.79300
N440        N  0.84213898  0.89157033  0.52750544    -0.79000
C441        C  0.84543361  0.90831764  0.49892309     0.81700
N442        N  0.84545782  0.89161134  0.46987531    -0.79000
C443        C  0.84339759  0.85819275  0.46948654     0.81800
N444        N  0.84039962  0.84169014  0.49830095    -0.80700
C445        C  0.55994467  0.59596868  0.74508968     0.79300
N446        N  0.56044310  0.56263751  0.74493131    -0.79000
C447        C  0.53192851  0.54558779  0.74431306     0.81700
N448        N  0.50301011  0.56165684  0.74361115    -0.79000
C449        C  0.50244671  0.59484704  0.74365944     0.81800
N450        N  0.53085249  0.61214240  0.74451960    -0.80700
C451        C  0.50347384  0.77490035  0.88096829     0.79300
N452        N  0.50351805  0.77802453  0.91431508    -0.79000
C453        C  0.53224411  0.78111236  0.93104675     0.81700
N454        N  0.56114110  0.78061744  0.91444208    -0.79000
C455        C  0.56163361  0.77749325  0.88128614     0.81800
N456        N  0.53278992  0.77447982  0.86462773    -0.80700
C457        C  0.75803427  0.45345936  0.61758495     0.79300
N458        N  0.76193373  0.45296573  0.58451872    -0.79000
C459        C  0.76195083  0.48127313  0.56725005     0.81700
N460        N  0.75996316  0.51041686  0.58282919    -0.79000
C461        C  0.75705741  0.51137040  0.61572726     0.81800
N462        N  0.75534051  0.48301552  0.63300893    -0.80700
C463        C  0.90906401  0.50874180  0.79095330     0.79300
N464        N  0.89293905  0.47961541  0.78742385    -0.79000
C465        C  0.90976647  0.45085738  0.78793693     0.81700
N466        N  0.94265885  0.45114912  0.79237248    -0.79000
C467        C  0.95886208  0.47997703  0.79610453     0.81800
N468        N  0.94215699  0.50880457  0.79507288    -0.80700
O469        O  0.81468292  0.74134468  0.84854758    -0.87400
O470        O  0.84899872  0.70140160  0.66945398    -0.87600
O471        O  0.85630651  0.65837801  0.77419925    -0.89200
O472        O  0.88124556  0.76111269  0.76198409    -0.88000
O473        O  0.85564188  0.80707020  0.74200916    -0.87600
O474        O  0.80776939  0.62988713  0.77408970    -0.89000
O475        O  0.87925229  0.70091775  0.71693295    -0.87400
O476        O  0.85840297  0.71971891  0.82010496    -0.87000
Zr477      Zr  0.84311540  0.71579985  0.76254056     2.84300
O478        O  0.82716548  0.74762229  0.71738518    -1.09000
O479        O  0.79797573  0.69975350  0.79407084    -1.09700
C480        C  0.84422049  0.73027027  0.84649096     1.05700
C481        C  0.87615103  0.69791752  0.68548950     1.05600
C482        C  0.83923937  0.63170048  0.77668616     1.08600
C483        C  0.88091134  0.79140749  0.75298261     1.06400
H484        H  0.82122873  0.66489337  0.72076160     0.32000
O485        O  0.80953291  0.68381257  0.72902369    -1.30000
H486        H  0.82826125  0.77561110  0.79434352     0.31600
O487        O  0.81419573  0.76236886  0.78057719    -1.31600
O488        O  0.74538946  0.72017120  0.64907206    -0.87400
O489        O  0.71243997  0.76106229  0.82765141    -0.88900
O490        O  0.76283406  0.63197188  0.71345984    -0.87500
O491        O  0.80992264  0.80787106  0.67777567    -0.87500
O492        O  0.79454228  0.83141539  0.78092753    -0.87200
O493        O  0.74949383  0.65365557  0.81711399    -0.87100
O494        O  0.67920982  0.69925954  0.73835174    -0.87400
O495        O  0.70573439  0.80149504  0.71855485    -0.86900
O496        O  0.70759262  0.65297321  0.75276652    -0.87900
O497        O  0.75333273  0.83137265  0.72093651    -0.87100
O498        O  0.77994860  0.66025203  0.66787436    -0.87500
O499        O  0.75284793  0.70072100  0.84798967    -0.87200
O500        O  0.77648017  0.80338079  0.82651312    -0.86900
O501        O  0.80737594  0.76027954  0.64759868    -0.87300
O502        O  0.70023510  0.73653956  0.67877820    -0.87600
O503        O  0.68185588  0.76040455  0.78038542    -0.88900
Zr504      Zr  0.79248795  0.71591844  0.68475726     2.83100
Zr505      Zr  0.76851673  0.74607585  0.81169909     2.83500
Zr506      Zr  0.76415276  0.66809848  0.76066698     2.84100
Zr507      Zr  0.79754933  0.79359561  0.73516205     2.83400
Zr508      Zr  0.71765998  0.74499593  0.73467129     2.84200
O509        O  0.75189239  0.77766098  0.76681963    -1.09500
O510        O  0.74714443  0.69942127  0.71598599    -1.09000
C511        C  0.71487134  0.72786337  0.65209982     1.05700
C512        C  0.68515460  0.76379844  0.81177283     1.08300
C513        C  0.76935070  0.63433650  0.68259018     1.05800
C514        C  0.81162431  0.79161835  0.65040341     1.06200
C515        C  0.78623445  0.82944884  0.81140089     1.05800
C516        C  0.74779778  0.66946721  0.84468183     1.05300
C517        C  0.68116882  0.66833474  0.74514963     1.05800
C518        C  0.72212390  0.82860384  0.71615072     1.05300
H519        H  0.71597892  0.70614411  0.79207452     0.32000
O520        O  0.73453246  0.71355828  0.77935253    -1.30600
H521        H  0.75513119  0.77425910  0.68452554     0.32000
O522        O  0.76278531  0.76161907  0.70297994    -1.32000
C523        C  0.50501516  0.35835585  0.25233015     0.79300
N524        N  0.53416071  0.34244724  0.25248805    -0.79000
C525        C  0.56231344  0.36014858  0.25323923     0.81700
N526        N  0.56138633  0.39338044  0.25371575    -0.79000
C527        C  0.53213767  0.40890563  0.25348405     0.81800
N528        N  0.50408205  0.39149409  0.25318537    -0.80700
C529        C  0.56291784  0.17142796  0.12357154     0.79300
N530        N  0.56410767  0.16988598  0.09011872    -0.79000
C531        C  0.53600078  0.16799330  0.07216231     0.81700
N532        N  0.50646000  0.16842848  0.08764839    -0.79000
C533        C  0.50472837  0.16993726  0.12087257     0.81800
N534        N  0.53296778  0.17151586  0.13869125    -0.80700
O535        O  0.81731811  0.21725950  0.15406504    -0.87400
O536        O  0.85325702  0.26496247  0.32989184    -0.87600
O537        O  0.85995823  0.30255664  0.22385607    -0.89200
O538        O  0.88526287  0.19958167  0.24402812    -0.88000
O539        O  0.85705695  0.15418942  0.26253534    -0.87600
O540        O  0.81162038  0.33123771  0.22291052    -0.89000
O541        O  0.88375042  0.26287545  0.28257562    -0.87400
O542        O  0.86289400  0.23672675  0.18116113    -0.87000
Zr543      Zr  0.84705919  0.24494927  0.23813181     2.84300
O544        O  0.83039671  0.21471908  0.28433303    -1.09000
O545        O  0.80144212  0.26031973  0.20654732    -1.09700
C546        C  0.84769990  0.22638979  0.15534623     1.05700
C547        C  0.88050093  0.26798998  0.31382770     1.05600
C548        C  0.84307597  0.32934049  0.22038238     1.08600
C549        C  0.88341084  0.16937057  0.25339261     1.06400
H550        H  0.82581220  0.29739296  0.27736760     0.32000
O551        O  0.81361442  0.27831003  0.27023149    -1.30000
H552        H  0.82999625  0.18439043  0.20882803     0.31600
O553        O  0.81624206  0.19845204  0.22214648    -1.31600
O554        O  0.75148860  0.24873741  0.35439030    -0.87400
O555        O  0.71240014  0.20006024  0.17834356    -0.88900
O556        O  0.77091290  0.33206722  0.28429275    -0.87500
O557        O  0.81249107  0.15646021  0.32612707    -0.87500
O558        O  0.79564705  0.12956400  0.22370772    -0.87200
O559        O  0.75289897  0.30575774  0.18137446    -0.87100
O560        O  0.68368526  0.26529103  0.26712613    -0.87400
O561        O  0.70618021  0.16286744  0.28637595    -0.86900
O562        O  0.71176084  0.31015570  0.24747248    -0.87900
O563        O  0.75340479  0.13238381  0.28379874    -0.87100
O564        O  0.78884803  0.30545034  0.33045793    -0.87500
O565        O  0.75529425  0.25761151  0.15223299    -0.87200
O566        O  0.77655914  0.15646354  0.17797663    -0.86900
O567        O  0.81182208  0.20512776  0.35477469    -0.87300
O568        O  0.70551462  0.23252168  0.32635090    -0.87600
O569        O  0.68362969  0.20109832  0.22669989    -0.88900
Zr570      Zr  0.79704898  0.24843293  0.31635740     2.83100
Zr571      Zr  0.77021529  0.21428219  0.19109073     2.83500
Zr572      Zr  0.76805418  0.29380870  0.23873382     2.84100
Zr573      Zr  0.79921568  0.16875433  0.26865136     2.83400
Zr574      Zr  0.72076101  0.21893657  0.27013964     2.84200
O575        O  0.75370060  0.18503105  0.23771887    -1.09500
O576        O  0.75159984  0.26481332  0.28547878    -1.09000
C577        C  0.72056747  0.24265421  0.35234390     1.05700
C578        C  0.68550997  0.19698642  0.19528582     1.08300
C579        C  0.77945427  0.33111742  0.31472791     1.05800
C580        C  0.81527343  0.17363540  0.35283005     1.06200
C581        C  0.78649536  0.13073320  0.19342267     1.05800
C582        C  0.75069490  0.28902213  0.15429426     1.05300
C583        C  0.68575981  0.29546642  0.25785418     1.05800
C584        C  0.72212853  0.13550612  0.28864501     1.05300
H585        H  0.71820231  0.25525631  0.21078271     0.32000
O586        O  0.73698400  0.24813437  0.22321219    -1.30600
H587        H  0.75826892  0.19060555  0.32033844     0.32000
O588        O  0.76594373  0.20232526  0.30122169    -1.32000
C589        C  0.50171840  0.35652582  0.73545102     0.79300
N590        N  0.50196587  0.38973040  0.73646559    -0.79000
C591        C  0.53074757  0.40597733  0.73848469     0.81700
N592        N  0.55919906  0.38924509  0.73986059    -0.79000
C593        C  0.55918927  0.35606694  0.73825940     0.81800
N594        N  0.53032122  0.33954318  0.73609786    -0.80700
C595        C  0.50426461  0.17765574  0.88025773     0.79300
N596        N  0.53335608  0.17850923  0.86381273    -0.79000
C597        C  0.56227080  0.17468438  0.87993502     0.81700
N598        N  0.56159282  0.17052275  0.91300189    -0.79000
C599        C  0.53295970  0.17100270  0.93001422     0.81800
N600        N  0.50412830  0.17440568  0.91354909    -0.80700
C601        C  0.64872472  0.25284896  0.52991916     0.79300
N602        N  0.66520883  0.25459326  0.50097599    -0.79000
C603        C  0.64834272  0.25772148  0.47247333     0.81700
N604        N  0.61522179  0.25888007  0.47292819    -0.79000
C605        C  0.59895044  0.25707908  0.50178867     0.81800
N606        N  0.61559052  0.25367961  0.53019011    -0.80700
C607        C  0.83979899  0.10148714  0.47319525     0.79300
N608        N  0.84312704  0.06821310  0.47179331    -0.79000
C609        C  0.84677661  0.05052474  0.49982885     0.81700
N610        N  0.84623297  0.06612415  0.52936835    -0.79000
C611        C  0.84245538  0.09925778  0.53110455     0.81800
N612        N  0.83934008  0.11678885  0.50295396    -0.80700
O613        O  0.81376869  0.21277369  0.85059421    -0.87400
O614        O  0.84935232  0.26658152  0.67274013    -0.87600
O615        O  0.88376839  0.19916058  0.75599384    -0.89200
O616        O  0.85976345  0.29932937  0.77687666    -0.88000
O617        O  0.81206006  0.32888730  0.77255214    -0.87600
O618        O  0.85556503  0.15279638  0.74092380    -0.89000
O619        O  0.88013662  0.26248399  0.71928597    -0.87400
O620        O  0.85922019  0.23158602  0.82271174    -0.87000
Zr621      Zr  0.84493951  0.24300571  0.76451680     2.84300
O622        O  0.81111509  0.27573735  0.73205650    -1.09000
O623        O  0.81491667  0.19709300  0.78093857    -1.09700
C624        C  0.84426697  0.22059923  0.84874720     1.05700
C625        C  0.87664251  0.26979453  0.68853450     1.05600
C626        C  0.88199831  0.16850837  0.74829238     1.08600
C627        C  0.84347784  0.32640514  0.77638688     1.06400
H628        H  0.84667369  0.20698685  0.70489816     0.32000
O629        O  0.82792520  0.21359980  0.71786318    -1.30000
H630        H  0.80684076  0.27193818  0.81498151     0.31600
O631        O  0.79951232  0.25943823  0.79610756    -1.31600
O632        O  0.74743577  0.24226889  0.64862977    -0.87400
O633        O  0.71344546  0.19343489  0.82400476    -0.88900
O634        O  0.81385083  0.15446142  0.67864433    -0.87500
O635        O  0.76308639  0.32939071  0.71780410    -0.87500
O636        O  0.75031405  0.30571454  0.81920034    -0.87200
O637        O  0.79980597  0.12928630  0.77981802    -0.87100
O638        O  0.70680060  0.15684342  0.71972709    -0.87400
O639        O  0.68120133  0.26018156  0.73886767    -0.86900
O640        O  0.75512165  0.12816004  0.72037569    -0.87900
O641        O  0.70852385  0.30607885  0.75747483    -0.87100
O642        O  0.81203238  0.20197902  0.64848132    -0.87500
O643        O  0.78278524  0.15645186  0.82631437    -0.87200
O644        O  0.75156288  0.25808057  0.84915747    -0.86900
O645        O  0.78453527  0.30469823  0.67206301    -0.87300
O646        O  0.70253239  0.22255682  0.67680372    -0.87600
O647        O  0.68236513  0.19750421  0.77783967    -0.88900
Zr648      Zr  0.79408472  0.24652402  0.68553380     2.83100
Zr649      Zr  0.76909505  0.21295847  0.81210212     2.83500
Zr650      Zr  0.79837537  0.16731391  0.73470577     2.84100
Zr651      Zr  0.76563818  0.29144255  0.76303908     2.83400
Zr652      Zr  0.71906667  0.21448523  0.73356560     2.84200
O653        O  0.73545158  0.24533562  0.77950678    -1.09500
O654        O  0.76461387  0.19944970  0.70169460    -1.09000
C655        C  0.71714081  0.23324290  0.65077098     1.05700
C656        C  0.68591200  0.19076605  0.80859061     1.08300
C657        C  0.81675931  0.17063647  0.65165727     1.05800
C658        C  0.77221769  0.32970165  0.68758126     1.06200
C659        C  0.74726513  0.28956269  0.84626785     1.05800
C660        C  0.79328871  0.13080662  0.81070229     1.05300
C661        C  0.72367182  0.13000578  0.71698244     1.05800
C662        C  0.68267149  0.29056975  0.74796939     1.05300
H663        H  0.74118228  0.16276404  0.77369360     0.32000
O664        O  0.75271636  0.18213048  0.76633345    -1.30600
H665        H  0.73399325  0.27485127  0.70385552     0.32000
O666        O  0.74827860  0.26135076  0.71702123    -1.32000
O667        O  0.25091109  0.21470614  0.14901356    -0.87400
O668        O  0.21398315  0.26421759  0.32434537    -0.87600
O669        O  0.18305331  0.19860689  0.23858100    -0.89200
O670        O  0.20938666  0.30159446  0.22049753    -0.88000
O671        O  0.25778273  0.33031098  0.21786005    -0.87600
O672        O  0.21052484  0.15371731  0.25905718    -0.89000
O673        O  0.18346878  0.25925433  0.27753021    -0.87400
O674        O  0.20547248  0.23092088  0.17822051    -0.87000
Zr675      Zr  0.22144953  0.24335029  0.23384178     2.84300
O676        O  0.25461601  0.27706017  0.26543641    -1.09000
O677        O  0.25163350  0.19658569  0.21831781    -1.09700
C678        C  0.22024187  0.22184758  0.15173950     1.05700
C679        C  0.18641356  0.26550794  0.30850426     1.05600
C680        C  0.18462613  0.16880769  0.24887794     1.08600
C681        C  0.22630696  0.32836885  0.21645201     1.06400
H682        H  0.21925017  0.20623262  0.29294827     0.32000
O683        O  0.23788503  0.21290739  0.27987577    -1.30000
H684        H  0.25908903  0.26983914  0.18215057     0.31600
O685        O  0.26647263  0.25783476  0.20114534    -1.31600
O686        O  0.31688022  0.24297827  0.34846142    -0.87400
O687        O  0.35395856  0.19512820  0.17233121    -0.88900
O688        O  0.25887224  0.15417323  0.32193965    -0.87500
O689        O  0.29683138  0.33085913  0.27778524    -0.87500
O690        O  0.31595026  0.30168444  0.17507184    -0.87200
O691        O  0.26995171  0.12725182  0.21947291    -0.87100
O692        O  0.36031209  0.15996326  0.28148022    -0.87400
O693        O  0.38401985  0.26215951  0.25941866    -0.86900
O694        O  0.31291385  0.12966225  0.28102380    -0.87900
O695        O  0.35552161  0.30748526  0.24280821    -0.87100
O696        O  0.25544221  0.20270624  0.34993419    -0.87500
O697        O  0.28231717  0.15433307  0.17208347    -0.87200
O698        O  0.31334373  0.25272626  0.14686799    -0.86900
O699        O  0.28261204  0.30365548  0.32494289    -0.87300
O700        O  0.36223642  0.22467527  0.32016661    -0.87600
O701        O  0.38419990  0.19982746  0.21959537    -0.88900
Zr702      Zr  0.27078388  0.24683606  0.31147469     2.83100
Zr703      Zr  0.29694833  0.21080997  0.18600219     2.83500
Zr704      Zr  0.26869264  0.16666740  0.26412202     2.84100
Zr705      Zr  0.29998131  0.29134601  0.23291092     2.83400
Zr706      Zr  0.34682229  0.21586517  0.26364203     2.84200
O707        O  0.33050526  0.24516444  0.21713995    -1.09500
O708        O  0.30159516  0.20082932  0.29564207    -1.09000
C709        C  0.34720163  0.23431065  0.34632261     1.05700
C710        C  0.38130178  0.19405827  0.18853121     1.08300
C711        C  0.25458961  0.17087716  0.34862722     1.05800
C712        C  0.29105537  0.32961021  0.30894433     1.06200
C713        C  0.31828935  0.28400371  0.14852982     1.05800
C714        C  0.27336714  0.12848901  0.18807019     1.05300
C715        C  0.34416751  0.13284534  0.28546124     1.05800
C716        C  0.38169620  0.29289123  0.25214020     1.05300
H717        H  0.32636782  0.16196895  0.22495093     0.32000
O718        O  0.31421167  0.18115609  0.23188490    -1.30600
H719        H  0.33031529  0.27595911  0.29287590     0.32000
O720        O  0.31641787  0.26208027  0.27958915    -1.32000
C721        C  0.85274468  0.15872010  0.60273699    -0.02800
C722        C  0.82502013  0.15107738  0.62196555     0.06900
C723        C  0.80541555  0.12378137  0.61323904    -0.02900
C724        C  0.81237919  0.10565884  0.58455944    -0.02900
C725        C  0.83790960  0.11575752  0.56333021     0.07000
C726        C  0.85822060  0.14229977  0.57266157    -0.03100
Br727      Br  0.89424978  0.15554548  0.54487591    -0.01600
Br728      Br  0.88557700  0.18807397  0.61987755    -0.01700
Br729      Br  0.78583982  0.06763446  0.57424116    -0.01700
Br730      Br  0.76835663  0.11121383  0.64009482    -0.01600
C731        C  0.66071402  0.26899119  0.58745688    -0.02800
C732        C  0.66615078  0.24753473  0.56079315     0.06900
C733        C  0.68649774  0.21985229  0.56449241    -0.02900
C734        C  0.70354611  0.21529983  0.59398390    -0.02900
C735        C  0.69761649  0.23633834  0.62081236     0.07000
C736        C  0.67506923  0.26227659  0.61791902    -0.03100
Br737      Br  0.66400783  0.28876239  0.65545123    -0.01600
Br738      Br  0.63549885  0.30875245  0.58176848    -0.01700
Br739      Br  0.73501627  0.18035607  0.59758515    -0.01700
Br740      Br  0.68942199  0.18702664  0.53021835    -0.01600
C741        C  0.59765824  0.16413765  0.82935616    -0.02800
C742        C  0.59447434  0.17607421  0.86199567     0.06900
C743        C  0.62282822  0.18852271  0.87786672    -0.02900
C744        C  0.65357006  0.18779552  0.86204503    -0.02900
C745        C  0.65575597  0.18108426  0.82786034     0.07000
C746        C  0.62761124  0.16777729  0.81202734    -0.03100
Br747      Br  0.62998162  0.15154952  0.76727304    -0.01600
Br748      Br  0.56175899  0.14119459  0.80818932    -0.01700
Br749      Br  0.69207463  0.19358437  0.88930370    -0.01700
Br750      Br  0.62028468  0.21040919  0.92018706    -0.01600
C751        C  0.61746216  0.34981472  0.72155789    -0.02800
C752        C  0.59052205  0.33867059  0.74036161     0.06900
C753        C  0.59465963  0.31317204  0.76333861    -0.02900
C754        C  0.62513566  0.29759082  0.76597209    -0.02900
C755        C  0.65192562  0.30885695  0.74729420     0.07000
C756        C  0.64854518  0.33617413  0.72648324    -0.03100
Br757      Br  0.68614900  0.35525840  0.70469667    -0.01600
Br758      Br  0.61178929  0.38226407  0.68740881    -0.01700
Br759      Br  0.63078051  0.26213576  0.79681306    -0.01700
Br760      Br  0.55971409  0.30091194  0.79304107    -0.01600
C761        C  0.67834762  0.22292098  0.39218111    -0.02800
C762        C  0.70092722  0.24737722  0.38239056     0.06900
C763        C  0.70494831  0.27608639  0.40178627    -0.02900
C764        C  0.68696319  0.27991190  0.43096193    -0.02900
C765        C  0.66540981  0.25501609  0.44102835     0.07000
C766        C  0.66045630  0.22693028  0.42134691    -0.03100
Br767      Br  0.62976908  0.19328490  0.43478599    -0.01600
Br768      Br  0.67331321  0.18256835  0.36734405    -0.01700
Br769      Br  0.69025316  0.32002254  0.45633282    -0.01700
Br770      Br  0.73397308  0.31107279  0.38842347    -0.01600
C771        C  0.85610810  0.11822258  0.41592143    -0.02800
C772        C  0.83412972  0.12066554  0.44270558     0.06900
C773        C  0.80639715  0.14129979  0.44011522    -0.02900
C774        C  0.80064383  0.15900834  0.41100600    -0.02900
C775        C  0.82215146  0.15584764  0.38388653     0.07000
C776        C  0.85002907  0.13556125  0.38660772    -0.03100
Br777      Br  0.88089766  0.13279558  0.35070343    -0.01600
Br778      Br  0.89560240  0.09247207  0.41983606    -0.01700
Br779      Br  0.76221759  0.18647298  0.40810182    -0.01700
Br780      Br  0.77486433  0.14402908  0.47562145    -0.01600
C781        C  0.52700992  0.19776585  0.01938383    -0.02800
C782        C  0.53705205  0.16906272  0.03582615     0.06900
C783        C  0.54664984  0.14126987  0.01743407    -0.02900
C784        C  0.54543340  0.14191700  0.98280566    -0.02900
C785        C  0.53383672  0.17007989  0.96640667     0.07000
C786        C  0.52539962  0.19829261  0.98481535    -0.03100
Br787      Br  0.51369626  0.23841465  0.96262486    -0.01600
Br788      Br  0.51669215  0.23687670  0.04428764    -0.01700
Br789      Br  0.55935413  0.10405492  0.95778148    -0.01700
Br790      Br  0.56036810  0.10194117  0.03970350    -0.01600
C791        C  0.44983780  0.14964024  0.14164368    -0.02800
C792        C  0.47248689  0.17545119  0.13700679     0.06900
C793        C  0.46403007  0.20731554  0.14744578    -0.02900
C794        C  0.43589003  0.21238698  0.16676664    -0.02900
C795        C  0.41224629  0.18725655  0.17013892     0.07000
C796        C  0.41906433  0.15595586  0.15659144    -0.03100
Br797      Br  0.38718984  0.12131079  0.15978883    -0.01600
Br798      Br  0.46114826  0.10574060  0.12785524    -0.01700
Br799      Br  0.43172738  0.25303417  0.19061169    -0.01700
Br800      Br  0.48859305  0.24471315  0.13200010    -0.01600
C801        C  0.59537383  0.20048668  0.16826748    -0.02800
C802        C  0.59393913  0.17641388  0.14308368     0.06900
C803        C  0.62276451  0.15817484  0.13601520    -0.02900
C804        C  0.65253151  0.16473490  0.15284473    -0.02900
C805        C  0.65397663  0.18918961  0.17762484     0.07000
C806        C  0.62470252  0.20623578  0.18578262    -0.03100
Br807      Br  0.62398184  0.23879639  0.22046106    -0.01600
Br808      Br  0.55811634  0.22821250  0.17781875    -0.01700
Br809      Br  0.69082346  0.13845065  0.14320478    -0.01700
Br810      Br  0.62151924  0.12276392  0.10439202    -0.01600
C811        C  0.41905067  0.33637851  0.23010744    -0.02800
C812        C  0.41168618  0.31262617  0.25429816     0.06900
C813        C  0.43440128  0.30609318  0.27950446    -0.02900
C814        C  0.46585191  0.31972069  0.27803766    -0.02900
C815        C  0.47416707  0.34054414  0.25184694     0.07000
C816        C  0.45088022  0.34879636  0.22786501    -0.03100
Br817      Br  0.46300785  0.37596768  0.19083221    -0.01600
Br818      Br  0.38597363  0.35481803  0.20163442    -0.01700
Br819      Br  0.49682474  0.31081078  0.31265870    -0.01700
Br820      Br  0.42114445  0.28235680  0.31838217    -0.01600
C821        C  0.61067453  0.33685341  0.22534463    -0.02800
C822        C  0.59375516  0.34363341  0.25462327     0.06900
C823        C  0.60746542  0.33603765  0.28528155    -0.02900
C824        C  0.63798605  0.32036127  0.28662012    -0.02900
C825        C  0.65528960  0.31407315  0.25727371     0.07000
C826        C  0.64205568  0.32310840  0.22668336    -0.03100
Br827      Br  0.66609712  0.31522311  0.18645268    -0.01600
Br828      Br  0.59019972  0.34525716  0.18353649    -0.01700
Br829      Br  0.65605907  0.30797553  0.32853282    -0.01700
Br830      Br  0.58432476  0.34717349  0.32523034    -0.01600
C831        C  0.87675612  0.36696385  0.80875837    -0.02800
C832        C  0.86240964  0.35723434  0.77888405     0.06900
C833        C  0.86709742  0.37676556  0.75074901    -0.02900
C834        C  0.88242277  0.40766067  0.75358773    -0.02900
C835        C  0.89268131  0.41917749  0.78462298     0.07000
C836        C  0.89022362  0.39854433  0.81212562    -0.03100
Br837      Br  0.90527412  0.41360222  0.85452899    -0.01600
Br838      Br  0.88248011  0.33584942  0.84342232    -0.01700
Br839      Br  0.89167040  0.43271357  0.71466174    -0.01700
Br840      Br  0.85683759  0.35910592  0.70780954    -0.01600
C841        C  0.89492804  0.56549299  0.81167095    -0.02800
C842        C  0.89098898  0.54018121  0.78810366     0.06900
C843        C  0.86998818  0.54523790  0.76116619    -0.02900
C844        C  0.85186136  0.57436045  0.75869326    -0.02900
C845        C  0.85699029  0.60033453  0.78119445     0.07000
C846        C  0.87918180  0.59604910  0.80735306    -0.03100
Br847      Br  0.88735110  0.63159524  0.83782769    -0.01600
Br848      Br  0.91993422  0.55773891  0.85104274    -0.01700
Br849      Br  0.82089779  0.57845210  0.72328070    -0.01700
Br850      Br  0.86789655  0.51389345  0.72557234    -0.01600
C851        C  0.77098278  0.42168070  0.66930097    -0.02800
C852        C  0.75932157  0.42213258  0.63649692     0.06900
C853        C  0.75019553  0.39195138  0.62135274    -0.02900
C854        C  0.75602246  0.36183565  0.63726781    -0.02900
C855        C  0.76783580  0.36141005  0.66987633     0.07000
C856        C  0.77339513  0.39178643  0.68632449    -0.03100
Br857      Br  0.78410056  0.39399390  0.73269835    -0.01600
Br858      Br  0.78572139  0.46119272  0.69191066    -0.01700
Br859      Br  0.74539584  0.32138022  0.61445472    -0.01700
Br860      Br  0.72699332  0.39089781  0.57980325    -0.01600
C861        C  0.73328534  0.55506244  0.65080216    -0.02800
C862        C  0.75972734  0.54299048  0.63235264     0.06900
C863        C  0.78847389  0.56184747  0.62826530    -0.02900
C864        C  0.79085549  0.59292410  0.64294144    -0.02900
C865        C  0.76496250  0.60442888  0.66291986     0.07000
C866        C  0.73587289  0.58577706  0.66616638    -0.03100
Br867      Br  0.69861638  0.60273447  0.68994122    -0.01600
Br868      Br  0.69324041  0.52986432  0.65415838    -0.01700
Br869      Br  0.83047812  0.61848809  0.63686600    -0.01700
Br870      Br  0.82565763  0.54420343  0.60447854    -0.01600
C871        C  0.61501343  0.80173335  0.86123807    -0.02800
C872        C  0.59361291  0.77451507  0.86402752     0.06900
C873        C  0.60391104  0.74367229  0.85217462    -0.02900
C874        C  0.63326678  0.74089704  0.83431953    -0.02900
C875        C  0.65451086  0.76798452  0.83100983     0.07000
C876        C  0.64597152  0.79814422  0.84581463    -0.03100
Br877      Br  0.67675025  0.83410278  0.84529432    -0.01600
Br878      Br  0.60172655  0.84389659  0.87825474    -0.01700
Br879      Br  0.64479216  0.69934627  0.81523956    -0.01700
Br880      Br  0.58008792  0.70437409  0.86349082    -0.01600
C881        C  0.53823486  0.49162021  0.77151293    -0.02800
C882        C  0.53213942  0.50987642  0.74290950     0.06900
C883        C  0.52510732  0.49401562  0.71297192    -0.02900
C884        C  0.52480250  0.45966350  0.71148302    -0.02900
C885        C  0.53115143  0.44152446  0.74001219     0.07000
C886        C  0.53799993  0.45725547  0.76998741    -0.03100
Br887      Br  0.54621052  0.43159909  0.80893576    -0.01600
Br888      Br  0.54506018  0.51348638  0.81299858    -0.01700
Br889      Br  0.51682495  0.43732441  0.67032449    -0.01700
Br890      Br  0.51599443  0.51935495  0.67409025    -0.01600
C891        C  0.59817554  0.63598403  0.71925868    -0.02800
C892        C  0.59089393  0.61436591  0.74518589     0.06900
C893        C  0.61372924  0.60946812  0.77056373    -0.02900
C894        C  0.64364445  0.62651553  0.77033520    -0.02900
C895        C  0.65062100  0.64895802  0.74471697     0.07000
C896        C  0.62814814  0.65287036  0.71872825    -0.03100
Br897      Br  0.63936536  0.67878625  0.68059646    -0.01600
Br898      Br  0.56787857  0.64154147  0.68343230    -0.01700
Br899      Br  0.67403175  0.61933856  0.80614670    -0.01700
Br900      Br  0.60346991  0.58072289  0.80679696    -0.01600
C901        C  0.81662160  0.96246440  0.49571368    -0.02800
C902        C  0.84602855  0.94470972  0.49940181     0.06900
C903        C  0.87568611  0.96183150  0.50444944    -0.02900
C904        C  0.87616016  0.99653007  0.50403940    -0.02900
C905        C  0.84695057  0.01418985  0.49871431     0.07000
C906        C  0.81715769  0.99706506  0.49473536    -0.03100
Br907      Br  0.77685925  0.02118255  0.48894830    -0.01600
Br908      Br  0.77529447  0.93946372  0.49459952    -0.01700
Br909      Br  0.91673889  0.02000485  0.51054984    -0.01700
Br910      Br  0.91528871  0.93767403  0.51333723    -0.01600
C911        C  0.79827100  0.80463500  0.59159291    -0.02800
C912        C  0.81830866  0.80996049  0.61945180     0.06900
C913        C  0.84523908  0.83169294  0.61688480    -0.02900
C914        C  0.85316101  0.84611197  0.58638546    -0.02900
C915        C  0.83314508  0.84064326  0.55863533     0.07000
C916        C  0.80544856  0.82000901  0.56149844    -0.03100
Br917      Br  0.77595282  0.81383464  0.52480895    -0.01600
Br918      Br  0.75921702  0.77820678  0.59479803    -0.01700
Br919      Br  0.89293889  0.87149591  0.58210526    -0.01700
Br920      Br  0.87177467  0.84171036  0.65483967    -0.01600
C921        C  0.68016193  0.69914889  0.57185944    -0.02800
C922        C  0.66625512  0.72844314  0.56043921     0.06900
C923        C  0.66461754  0.75648218  0.58062820    -0.02900
C924        C  0.67908134  0.75589109  0.61175168    -0.02900
C925        C  0.69547871  0.72725726  0.62212988     0.07000
C926        C  0.69533821  0.69869309  0.60251177    -0.03100
Br927      Br  0.71463189  0.65845236  0.61794178    -0.01600
Br928      Br  0.67621462  0.65905222  0.54671185    -0.01700
Br929      Br  0.67808078  0.79498720  0.63887547    -0.01700
Br930      Br  0.64264430  0.79559279  0.56547649    -0.01600
C931        C  0.71339108  0.70641902  0.40507133    -0.02800
C932        C  0.70682898  0.73107726  0.38154285     0.06900
C933        C  0.68220478  0.75486436  0.38805903    -0.02900
C934        C  0.66461209  0.75387543  0.41772246    -0.02900
C935        C  0.67054761  0.72867347  0.44047326     0.07000
C936        C  0.69468344  0.70482916  0.43396078    -0.03100
Br937      Br  0.70070739  0.66832038  0.46338328    -0.01600
Br938      Br  0.74698861  0.67345780  0.39809586    -0.01700
Br939      Br  0.63336218  0.78813274  0.42784813    -0.01700
Br940      Br  0.67270556  0.78999061  0.35756639    -0.01600
C941        C  0.80097113  0.82358276  0.39421801    -0.02800
C942        C  0.82661732  0.80672630  0.37827697     0.06900
C943        C  0.85734369  0.80401810  0.39394904    -0.02900
C944        C  0.86328066  0.82121367  0.42361593    -0.02900
C945        C  0.83823339  0.84042175  0.43805267     0.07000
C946        C  0.80683692  0.84072830  0.42367383    -0.03100
Br947      Br  0.77106823  0.86281586  0.44551805    -0.01600
Br948      Br  0.75674417  0.81925610  0.37808481    -0.01700
Br949      Br  0.90537752  0.81801942  0.44475225    -0.01700
Br950      Br  0.89032890  0.77501617  0.37599540    -0.01600
C951        C  0.54511049  0.75489366  0.01933166    -0.02800
C952        C  0.53380501  0.78267466  0.03676511     0.06900
C953        C  0.52217562  0.81021068  0.01941221    -0.02900
C954        C  0.52217630  0.81004520  0.98475360    -0.02900
C955        C  0.53248980  0.78183981  0.96737285     0.07000
C956        C  0.54404158  0.75431158  0.98477625    -0.03100
Br957      Br  0.55749890  0.71529047  0.96124038    -0.01600
Br958      Br  0.56104550  0.71706591  0.04287730    -0.01700
Br959      Br  0.50994909  0.84904833  0.96108052    -0.01700
Br960      Br  0.50706804  0.84842844  0.04317618    -0.01600
C961        C  0.59908952  0.74507068  0.15881811    -0.02800
C962        C  0.59275027  0.77440598  0.14161803     0.06900
C963        C  0.61646584  0.79974069  0.14175351    -0.02900
C964        C  0.64596088  0.79585599  0.15933780    -0.02900
C965        C  0.65297769  0.76594694  0.17504042     0.07000
C966        C  0.62911764  0.74078507  0.17522195    -0.03100
Br967      Br  0.63720747  0.70029923  0.19818853    -0.01600
Br968      Br  0.56723531  0.70993509  0.15900386    -0.01700
Br969      Br  0.67481500  0.83276244  0.16547639    -0.01700
Br970      Br  0.60821224  0.84033818  0.11898361    -0.01600
C971        C  0.53343466  0.46366783  0.22784277    -0.02800
C972        C  0.53057234  0.44427787  0.25614530     0.06900
C973        C  0.52515286  0.45855935  0.28712885    -0.02900
C974        C  0.52508629  0.49273197  0.29024877    -0.02900
C975        C  0.53024018  0.51220776  0.26232959     0.07000
C976        C  0.53315672  0.49793560  0.23093071    -0.03100
Br977      Br  0.53561673  0.52514164  0.19234705    -0.01600
Br978      Br  0.53669358  0.44315584  0.18512032    -0.01700
Br979      Br  0.51796876  0.51292799  0.33262970    -0.01700
Br980      Br  0.51786438  0.43125545  0.32513722    -0.01600
C981        C  0.61932877  0.60309280  0.24736999    -0.02800
C982        C  0.59738739  0.61074065  0.27322832     0.06900
C983        C  0.60622278  0.63467159  0.29665638    -0.02900
C984        C  0.63557668  0.65263531  0.29297440    -0.02900
C985        C  0.65697706  0.64610981  0.26616004     0.07000
C986        C  0.64923208  0.62004515  0.24430290    -0.03100
Br987      Br  0.67839422  0.60739299  0.20887665    -0.01600
Br988      Br  0.60801644  0.57096624  0.21409327    -0.01700
Br989      Br  0.64655554  0.68491596  0.32613888    -0.01700
Br990      Br  0.57885034  0.64164479  0.33488622    -0.01600
C991        C  0.86757036  0.54877424  0.18384113    -0.02800
C992        C  0.89637814  0.54258751  0.20223402     0.06900
C993        C  0.90862406  0.56778069  0.22292739    -0.02900
C994        C  0.89380320  0.59906440  0.22366428    -0.02900
C995        C  0.86396637  0.60472005  0.20684192     0.07000
C996        C  0.85136090  0.57947624  0.18638480    -0.03100
Br997      Br  0.81289450  0.58752866  0.15993803    -0.01600
Br998      Br  0.84986382  0.51554651  0.15482954    -0.01700
Br999      Br  0.91479890  0.63337535  0.24910347    -0.01700
Br1000     Br  0.94299415  0.55861725  0.25431852    -0.01600
C1001       C  0.87199617  0.41793131  0.23080455    -0.02800
C1002       C  0.89530311  0.42081060  0.20551281     0.06900
C1003       C  0.90167224  0.39352778  0.18478704    -0.02900
C1004       C  0.88449780  0.36365206  0.18928528    -0.02900
C1005       C  0.86089367  0.36084174  0.21453380     0.07000
C1006       C  0.85420138  0.38864422  0.23452671    -0.03100
Br1007     Br  0.82058299  0.38787816  0.26741114    -0.01600
Br1008     Br  0.86623160  0.45320502  0.26253038    -0.01700
Br1009     Br  0.89122310  0.32760902  0.15903634    -0.01700
Br1010     Br  0.93328340  0.39717217  0.14963112    -0.01600
C1011       C  0.79881533  0.47404682  0.48347002    -0.02800
C1012       C  0.77240817  0.48480873  0.46419717     0.06900
C1013       C  0.74250436  0.49420725  0.47869307    -0.02900
C1014       C  0.73884161  0.49226339  0.51275149    -0.02900
C1015       C  0.76508419  0.48090512  0.53190048     0.07000
C1016       C  0.79510973  0.47197523  0.51750025    -0.03100
Br1017     Br  0.83151733  0.45848261  0.54447066    -0.01600
Br1018     Br  0.84048421  0.46369565  0.46335808    -0.01700
Br1019     Br  0.69772948  0.50439437  0.53321373    -0.01700
Br1020     Br  0.70635974  0.50887875  0.45215489    -0.01600
C1021       C  0.75464930  0.56121342  0.35691169    -0.02800
C1022       C  0.78351045  0.54282611  0.36084283     0.06900
C1023       C  0.81300827  0.55257145  0.34582665    -0.02900
C1024       C  0.81344664  0.58091874  0.32656994    -0.02900
C1025       C  0.78540204  0.60089097  0.32541173     0.07000
C1026       C  0.75585420  0.59093059  0.34001190    -0.03100
Br1027     Br  0.71673194  0.61719388  0.33525631    -0.01600
Br1028     Br  0.71309745  0.54458744  0.37219253    -0.01700
Br1029     Br  0.85094658  0.59049375  0.29942536    -0.01700
Br1030     Br  0.85269699  0.52755011  0.35217064    -0.01600
C1031       C  0.81030451  0.40391074  0.36291055    -0.02800
C1032       C  0.78243122  0.42399753  0.36267154     0.06900
C1033       C  0.75351304  0.41399117  0.34698249    -0.02900
C1034       C  0.75239908  0.38346539  0.33118856    -0.02900
C1035       C  0.77980679  0.36237711  0.33258558     0.07000
C1036       C  0.80882136  0.37262199  0.34862687    -0.03100
Br1037     Br  0.84770619  0.34555734  0.34857568    -0.01600
Br1038     Br  0.85095703  0.42030895  0.38088224    -0.01700
Br1039     Br  0.71319206  0.37108203  0.30787222    -0.01700
Br1040     Br  0.71535595  0.44215011  0.34756172    -0.01600
C1041       C  0.42562279  0.63715295  0.71604659    -0.02800
C1042       C  0.40741793  0.63731146  0.74551641     0.06900
C1043       C  0.42039932  0.62301152  0.77412348    -0.02900
C1044       C  0.45257750  0.61100233  0.77380605    -0.02900
C1045       C  0.47086563  0.61142532  0.74452067     0.07000
C1046       C  0.45742872  0.62426826  0.71556763    -0.03100
Br1047     Br  0.48239300  0.62428600  0.67530757    -0.01600
Br1048     Br  0.40634187  0.65285325  0.67587511    -0.01700
Br1049     Br  0.47263439  0.59591212  0.81390524    -0.01700
Br1050     Br  0.39491487  0.62087784  0.81407797    -0.01600
C1051       C  0.41391144  0.78453732  0.85289796    -0.02800
C1052       C  0.41105259  0.75902584  0.82948011     0.06900
C1053       C  0.43898744  0.73971997  0.82222675    -0.02900
C1054       C  0.46864841  0.74459082  0.83923261    -0.02900
C1055       C  0.47173880  0.76998587  0.86285415     0.07000
C1056       C  0.44405041  0.79013976  0.86929324    -0.03100
Br1057     Br  0.44739069  0.82678559  0.89923893    -0.01600
Br1058     Br  0.37719956  0.81350836  0.86073806    -0.01700
Br1059     Br  0.50386722  0.71407041  0.83125469    -0.01700
Br1060     Br  0.43718094  0.70552988  0.78931387    -0.01600
C1061       C  0.04828368  0.47863434  0.77254627    -0.02800
C1062       C  0.06323908  0.47365745  0.80329209     0.06900
C1063       C  0.04384828  0.47100061  0.83181061    -0.02900
C1064       C  0.00958808  0.47481817  0.82973751    -0.02900
C1065       C  0.99472203  0.47960899  0.79895606     0.07000
C1066       C  0.01402634  0.48124102  0.77034561    -0.03100
Br1067     Br  0.99336387  0.48694872  0.72815457    -0.01600
Br1068     Br  0.07483095  0.48127231  0.73330234    -0.01700
Br1069     Br  0.98297328  0.47459260  0.86894923    -0.01700
Br1070     Br  0.06418589  0.46160270  0.87336439    -0.01600
C1071       C  0.18155224  0.54237122  0.76464973    -0.02800
C1072       C  0.16490384  0.53581661  0.79425048     0.06900
C1073       C  0.16309424  0.56040914  0.81880622    -0.02900
C1074       C  0.17897133  0.59090283  0.81421361    -0.02900
C1075       C  0.19687167  0.59681353  0.78519271     0.07000
C1076       C  0.19695970  0.57291410  0.76004402    -0.03100
Br1077     Br  0.21579856  0.58309152  0.71806005    -0.01600
Br1078     Br  0.18223081  0.51009953  0.72965051    -0.01700
Br1079     Br  0.17632863  0.62439728  0.84766851    -0.01700
Br1080     Br  0.14024328  0.55181586  0.85943818    -0.01600
C1081       C  0.31283087  0.53953867  0.65821572    -0.02800
C1082       C  0.28677216  0.53118692  0.63729727     0.06900
C1083       C  0.26128440  0.55363854  0.63146603    -0.02900
C1084       C  0.26180245  0.58474578  0.64637089    -0.02900
C1085       C  0.28711147  0.59282838  0.66872636     0.07000
C1086       C  0.31318147  0.57040266  0.67374434    -0.03100
Br1087     Br  0.35102946  0.58249454  0.69948002    -0.01600
Br1088     Br  0.34860316  0.50907084  0.66470976    -0.01700
Br1089     Br  0.22690748  0.61525801  0.63625652    -0.01700
Br1090     Br  0.22431082  0.54084002  0.60466596    -0.01600
C1091       C  0.21758325  0.84043918  0.58987847    -0.02800
C1092       C  0.24056157  0.83630288  0.56404363     0.06900
C1093       C  0.26852262  0.81679893  0.56937941    -0.02900
C1094       C  0.27216876  0.79973028  0.59907114    -0.02900
C1095       C  0.24930432  0.80357615  0.62487732     0.07000
C1096       C  0.22262999  0.82513113  0.62058948    -0.03100
Br1097     Br  0.19291901  0.83356606  0.65660094    -0.01600
Br1098     Br  0.17821532  0.86557124  0.58284182    -0.01700
Br1099     Br  0.30989675  0.77248504  0.60465259    -0.01700
Br1100     Br  0.30357046  0.81553357  0.53727058    -0.01600
C1101       C  0.51821999  0.68831320  0.51136912    -0.02800
C1102       C  0.49830470  0.71489656  0.50234541     0.06900
C1103       C  0.51203750  0.74528254  0.49340727    -0.02900
C1104       C  0.54614510  0.74887944  0.49291483    -0.02900
C1105       C  0.56607796  0.72155292  0.49942515     0.07000
C1106       C  0.55229117  0.69153908  0.50958238    -0.03100
Br1107     Br  0.58003484  0.65523354  0.52197526    -0.01600
Br1108     Br  0.49878079  0.64758464  0.52602609    -0.01700
Br1109     Br  0.56543079  0.79174438  0.48697016    -0.01700
Br1110     Br  0.48414286  0.78221984  0.48346573    -0.01600
C1111       C  0.36092859  0.68286170  0.60414541    -0.02800
C1112       C  0.36420112  0.71163207  0.62353691     0.06900
C1113       C  0.38415751  0.73779007  0.61250910    -0.02900
C1114       C  0.39884686  0.73588565  0.58140312    -0.02900
C1115       C  0.39637262  0.70675851  0.56275323     0.07000
C1116       C  0.37784693  0.68011888  0.57425364    -0.03100
Br1117     Br  0.37654161  0.63955822  0.54948785    -0.01600
Br1118     Br  0.33430564  0.64640332  0.61851320    -0.01700
Br1119     Br  0.41987458  0.77429037  0.56301762    -0.01700
Br1120     Br  0.38981511  0.77737527  0.63849326    -0.01600
C1121       C  0.45030347  0.34264792  0.76436275    -0.02800
C1122       C  0.47034993  0.33941989  0.73637315     0.06900
C1123       C  0.45946216  0.32187897  0.70874918    -0.02900
C1124       C  0.42879101  0.30634561  0.70953022    -0.02900
C1125       C  0.40903782  0.30843753  0.73797530     0.07000
C1126       C  0.41925821  0.32789440  0.76492635    -0.03100
Br1127     Br  0.39178790  0.33376765  0.80334096    -0.01600
Br1128     Br  0.46617216  0.36592297  0.80267205    -0.01700
Br1129     Br  0.41316313  0.28428860  0.67070113    -0.01700
Br1130     Br  0.48613589  0.32018065  0.66952172    -0.01600
C1131       C  0.45228730  0.15342499  0.85718328    -0.02800
C1132       C  0.47312242  0.18080478  0.86168812     0.06900
C1133       C  0.46586925  0.21039182  0.84550287    -0.02900
C1134       C  0.43770323  0.21282463  0.82569173    -0.02900
C1135       C  0.41498769  0.18665272  0.82377179     0.07000
C1136       C  0.42343228  0.15629325  0.83811047    -0.03100
Br1137     Br  0.39857614  0.11763935  0.82720046    -0.01600
Br1138     Br  0.46454381  0.11153061  0.87543816    -0.01700
Br1139     Br  0.43208640  0.25108837  0.79887542    -0.01700
Br1140     Br  0.49423252  0.24803074  0.85111433    -0.01600
C1141       C  0.25961876  0.37378375  0.67214353    -0.02800
C1142       C  0.28470499  0.35075911  0.66664112     0.06900
C1143       C  0.31066773  0.35782409  0.64505548    -0.02900
C1144       C  0.31157385  0.38810870  0.62885139    -0.02900
C1145       C  0.28608534  0.41094940  0.63392161     0.07000
C1146       C  0.25985221  0.40359868  0.65518507    -0.03100
Br1147     Br  0.22355072  0.43365561  0.66022104    -0.01600
Br1148     Br  0.22551224  0.36495648  0.70377036    -0.01700
Br1149     Br  0.34880723  0.39892864  0.60154358    -0.01700
Br1150     Br  0.34599807  0.32708370  0.63937301    -0.01600
C1151       C  0.21895169  0.38215256  0.80186419    -0.02800
C1152       C  0.20396134  0.35392681  0.78748278     0.06900
C1153       C  0.17130906  0.35692653  0.77576324    -0.02900
C1154       C  0.15427638  0.38706435  0.77839179    -0.02900
C1155       C  0.16830097  0.41420900  0.79518248     0.07000
C1156       C  0.20077983  0.41130596  0.80708931    -0.03100
Br1157     Br  0.22084717  0.44672587  0.83194034    -0.01600
Br1158     Br  0.26488079  0.38268507  0.81395279    -0.01700
Br1159     Br  0.11296971  0.39152079  0.75539471    -0.01700
Br1160     Br  0.14993683  0.32107022  0.75282306    -0.01600
C1161       C  0.26499575  0.99101638  0.50319764    -0.02800
C1162       C  0.23566827  0.00906758  0.50000919     0.06900
C1163       C  0.20529316  0.99256434  0.49972891    -0.02900
C1164       C  0.20422661  0.95802960  0.50129355    -0.02900
C1165       C  0.23356929  0.94002892  0.50362068     0.07000
C1166       C  0.26390896  0.95649472  0.50480823    -0.03100
Br1167     Br  0.30392507  0.93141026  0.50852595    -0.01600
Br1168     Br  0.30656809  0.01336012  0.50625588    -0.01700
Br1169     Br  0.16270426  0.93536941  0.50038342    -0.01700
Br1170     Br  0.16518339  0.01758953  0.49790818    -0.01600
C1171       C  0.25621394  0.10017119  0.58591108    -0.02800
C1172       C  0.23382362  0.11176262  0.56204302     0.06900
C1173       C  0.21351217  0.13883786  0.56995601    -0.02900
C1174       C  0.21562151  0.15396966  0.60125808    -0.02900
C1175       C  0.23886733  0.14298082  0.62450312     0.07000
C1176       C  0.25875790  0.11571092  0.61669520    -0.03100
Br1177     Br  0.29181778  0.10067405  0.64699412    -0.01600
Br1178     Br  0.28617300  0.06455256  0.57626125    -0.01700
Br1179     Br  0.18559035  0.18889472  0.61284443    -0.01700
Br1180     Br  0.18246120  0.15518393  0.53831609    -0.01600
C1181       C  0.22933689  0.10279934  0.40966257    -0.02800
C1182       C  0.24249319  0.11468431  0.43974758     0.06900
C1183       C  0.26029848  0.14460422  0.43926693    -0.02900
C1184       C  0.26301879  0.16333067  0.41016501    -0.02900
C1185       C  0.24941123  0.15188773  0.38011619     0.07000
C1186       C  0.23316906  0.12087592  0.38017422    -0.03100
Br1187     Br  0.21577957  0.10194059  0.34004635    -0.01600
Br1188     Br  0.20546666  0.06160908  0.40789448    -0.01700
Br1189     Br  0.28831452  0.20353917  0.41204870    -0.01700
Br1190     Br  0.28488208  0.15864990  0.47750357    -0.01600
C1191       C  0.50995197  0.27850541  0.49402134    -0.02800
C1192       C  0.49563278  0.24789252  0.50133812     0.06900
C1193       C  0.51519418  0.22010103  0.50700635    -0.02900
C1194       C  0.54926234  0.22330480  0.50753528    -0.02900
C1195       C  0.56354716  0.25422018  0.50181638     0.07000
C1196       C  0.54414767  0.28174882  0.49465074    -0.03100
Br1197     Br  0.56458428  0.32368340  0.48613905    -0.01600
Br1198     Br  0.48295752  0.31545842  0.48209394    -0.01700
Br1199     Br  0.57633216  0.18497988  0.51425234    -0.01700
Br1200     Br  0.49552617  0.17707017  0.51052488    -0.01600
C1201       C  0.40413829  0.20881467  0.58278550    -0.02800
C1202       C  0.39112495  0.22580554  0.55589902     0.06900
C1203       C  0.36118253  0.24282324  0.55919717    -0.02900
C1204       C  0.34505808  0.24385712  0.58967019    -0.02900
C1205       C  0.35936639  0.22853213  0.61764726     0.07000
C1206       C  0.39016831  0.21239792  0.61400642    -0.03100
Br1207     Br  0.41627372  0.19680859  0.65059401    -0.01600
Br1208     Br  0.43910032  0.17745143  0.57634293    -0.01700
Br1209     Br  0.30446205  0.26886980  0.59164968    -0.01700
Br1210     Br  0.34169985  0.26560403  0.52230901    -0.01600
C1211       C  0.39684541  0.20625329  0.41843374    -0.02800
C1212       C  0.39739506  0.23516289  0.43717542     0.06900
C1213       C  0.38329056  0.26435300  0.42566983    -0.02900
C1214       C  0.36717882  0.26430009  0.39542266    -0.02900
C1215       C  0.36605602  0.23513192  0.37662958     0.07000
C1216       C  0.38162372  0.20629688  0.38774659    -0.03100
Br1217     Br  0.38136490  0.16643297  0.36195274    -0.01600
Br1218     Br  0.41664072  0.16665573  0.43531390    -0.01700
Br1219     Br  0.34788317  0.30449018  0.37940732    -0.01700
Br1220     Br  0.38639778  0.30430770  0.45127913    -0.01600
C1221       C  0.44650580  0.60463883  0.28306928    -0.02800
C1222       C  0.47635278  0.61818966  0.27125759     0.06900
C1223       C  0.47596544  0.64922286  0.25581122    -0.02900
C1224       C  0.44631428  0.66646059  0.25258704    -0.02900
C1225       C  0.41618038  0.65164426  0.26176600     0.07000
C1226       C  0.41655165  0.62065514  0.27719028    -0.03100
Br1227     Br  0.37636711  0.60072269  0.29271866    -0.01600
Br1228     Br  0.44598937  0.56501154  0.30926412    -0.01700
Br1229     Br  0.44812248  0.71069351  0.23564182    -0.01700
Br1230     Br  0.51523024  0.66796045  0.23644387    -0.01600
C1231       C  0.45785199  0.74166480  0.14396303    -0.02800
C1232       C  0.47181336  0.77307448  0.13963711     0.06900
C1233       C  0.45431493  0.80119744  0.14979147    -0.02900
C1234       C  0.42326680  0.79791045  0.16479545    -0.02900
C1235       C  0.41014828  0.76644621  0.17062614     0.07000
C1236       C  0.42681606  0.73841435  0.15884306    -0.03100
Br1237     Br  0.40663758  0.69552306  0.16225510    -0.01600
Br1238     Br  0.48132389  0.70297546  0.12990092    -0.01700
Br1239     Br  0.39756263  0.83629266  0.17503991    -0.01700
Br1240     Br  0.47322270  0.84414416  0.14338321    -0.01600
C1241       C  0.39442605  0.70110519  0.38274019    -0.02800
C1242       C  0.36399790  0.71760341  0.38157751     0.06900
C1243       C  0.34895170  0.72785573  0.41128860    -0.02900
C1244       C  0.36587430  0.72552122  0.44102720    -0.02900
C1245       C  0.39568590  0.70805319  0.44243060     0.07000
C1246       C  0.40932634  0.69481598  0.41322715    -0.03100
Br1247     Br  0.44745790  0.66650696  0.41466807    -0.01600
Br1248     Br  0.41493532  0.68488142  0.34313242    -0.01700
Br1249     Br  0.34902829  0.74963649  0.47861189    -0.01700
Br1250     Br  0.30452542  0.74426241  0.41277065    -0.01600
C1251       C  0.27226353  0.83602029  0.42575550    -0.02800
C1252       C  0.24181069  0.83726650  0.44221534     0.06900
C1253       C  0.21344659  0.82544232  0.42637605    -0.02900
C1254       C  0.21553135  0.81217094  0.39435234    -0.02900
C1255       C  0.24631140  0.80897288  0.37884211     0.07000
C1256       C  0.27457273  0.82152084  0.39438143    -0.03100
Br1257     Br  0.31677896  0.81833267  0.37280973    -0.01600
Br1258     Br  0.31094409  0.85416332  0.44605315    -0.01700
Br1259     Br  0.17618883  0.80071694  0.37091444    -0.01700
Br1260     Br  0.17176145  0.82778939  0.44874208    -0.01600
C1261       C  0.05210433  0.49148301  0.17541725    -0.02800
C1262       C  0.06908045  0.47951547  0.20300520     0.06900
C1263       C  0.05137696  0.46797809  0.23043580    -0.02900
C1264       C  0.01681825  0.46793317  0.23005366    -0.02900
C1265       C  0.99990693  0.47992458  0.20237205     0.07000
C1266       C  0.01760884  0.49126990  0.17495567    -0.03100
Br1267     Br  0.99442107  0.50445049  0.13589489    -0.01600
Br1268     Br  0.07606099  0.50774063  0.13795187    -0.01700
Br1269     Br  0.99277561  0.45207055  0.26773329    -0.01700
Br1270     Br  0.07451564  0.45411663  0.26927454    -0.01600
C1271       C  0.20315617  0.58598366  0.18447988    -0.02800
C1272       C  0.20578112  0.60140293  0.21544979     0.06900
C1273       C  0.19031146  0.58702087  0.24296865    -0.02900
C1274       C  0.17358086  0.55689270  0.23973584    -0.02900
C1275       C  0.17231646  0.54086525  0.20906457     0.07000
C1276       C  0.18688489  0.55552261  0.18138913    -0.03100
Br1277     Br  0.18383055  0.53397170  0.13919325    -0.01600
Br1278     Br  0.21985708  0.60741254  0.14599582    -0.01700
Br1279     Br  0.15287293  0.53709283  0.27749093    -0.01700
Br1280     Br  0.19262007  0.60810004  0.28548029    -0.01600
C1281       C  0.18075264  0.40699315  0.23795263    -0.02800
C1282       C  0.17409045  0.42011719  0.20677948     0.06900
C1283       C  0.18633954  0.40419827  0.17850172    -0.02900
C1284       C  0.20400599  0.37447651  0.18141048    -0.02900
C1285       C  0.20841149  0.35993892  0.21249613     0.07000
C1286       C  0.19826401  0.37734298  0.24076601    -0.03100
Br1287     Br  0.21138975  0.36235042  0.28343422    -0.01600
Br1288     Br  0.16665617  0.43030063  0.27688527    -0.01700
Br1289     Br  0.22473724  0.35555597  0.14336695    -0.01700
Br1290     Br  0.17949206  0.42366737  0.13598100    -0.01600
C1291       C  0.26508715  0.48172939  0.48009845    -0.02800
C1292       C  0.29623878  0.47947782  0.46549568     0.06900
C1293       C  0.32454623  0.47482122  0.48435618    -0.02900
C1294       C  0.32178968  0.47295135  0.51844643    -0.02900
C1295       C  0.29057961  0.47409776  0.53310059     0.07000
C1296       C  0.26215419  0.47824656  0.51411958    -0.03100
Br1297     Br  0.21945638  0.47850968  0.53459667    -0.01600
Br1298     Br  0.22674626  0.48927262  0.45343919    -0.01700
Br1299     Br  0.36069481  0.46977806  0.54505272    -0.01700
Br1300     Br  0.36689718  0.47108151  0.46331125    -0.01600
C1301       C  0.31471510  0.56902252  0.37719999    -0.02800
C1302       C  0.30142300  0.54005055  0.36301438     0.06900
C1303       C  0.28574796  0.54156284  0.33213799    -0.02900
C1304       C  0.28470349  0.57128343  0.31521749    -0.02900
C1305       C  0.29502585  0.60058995  0.33078869     0.07000
C1306       C  0.30996083  0.59943198  0.36186245    -0.03100
Br1307     Br  0.32618704  0.63901025  0.38258880    -0.01600
Br1308     Br  0.34158378  0.56764127  0.41632159    -0.01700
Br1309     Br  0.26954673  0.57060587  0.27025647    -0.01700
Br1310     Br  0.26290528  0.50423688  0.31305081    -0.01600
C1311       C  0.27163590  0.36838628  0.35281673    -0.02800
C1312       C  0.29459853  0.36036780  0.32793270     0.06900
C1313       C  0.32134053  0.38171742  0.32171733    -0.02900
C1314       C  0.32407811  0.41156613  0.33880789    -0.02900
C1315       C  0.30081816  0.41972184  0.36298576     0.07000
C1316       C  0.27481202  0.39795574  0.37028912    -0.03100
Br1317     Br  0.24236154  0.40872038  0.40346672    -0.01600
Br1318     Br  0.23509594  0.33969359  0.36333963    -0.01700
Br1319     Br  0.36102135  0.44031646  0.33052380    -0.01700
Br1320     Br  0.35644188  0.36924585  0.29241614    -0.01600
C1321       C  0.14886446  0.25732835  0.35755209    -0.02800
C1322       C  0.15543830  0.27314509  0.32731227     0.06900
C1323       C  0.13086164  0.29388187  0.31403223    -0.02900
C1324       C  0.10101334  0.29940533  0.33114723    -0.02900
C1325       C  0.09418908  0.28292347  0.36096856     0.07000
C1326       C  0.11810538  0.26099589  0.37328663    -0.03100
Br1327     Br  0.10779485  0.23261769  0.40978937    -0.01600
Br1328     Br  0.18116544  0.22895203  0.37742509    -0.01700
Br1329     Br  0.07021458  0.33068499  0.31374184    -0.01700
Br1330     Br  0.13780038  0.31582798  0.27257723    -0.01600
C1331       C  0.93169291  0.30244080  0.32307920    -0.02800
C1332       C  0.91066730  0.27655689  0.33295787     0.06900
C1333       C  0.91963169  0.25740334  0.36042121    -0.02900
C1334       C  0.95069132  0.26140517  0.37506268    -0.02900
C1335       C  0.97187840  0.28699958  0.36512101     0.07000
C1336       C  0.96144143  0.30843277  0.34001799    -0.03100
Br1337     Br  0.98658389  0.34732470  0.33037964    -0.01600
Br1338     Br  0.91922568  0.33071601  0.28724809    -0.01700
Br1339     Br  0.96514977  0.22954542  0.40680540    -0.01700
Br1340     Br  0.89038487  0.22408781  0.37742368    -0.01600
C1341       C  0.13845235  0.14486564  0.28005656    -0.02800
C1342       C  0.15381364  0.15081458  0.24969369     0.06900
C1343       C  0.13892598  0.14098863  0.22011149    -0.02900
C1344       C  0.10895231  0.12418778  0.22103462    -0.02900
C1345       C  0.09413453  0.11742576  0.25146904     0.07000
C1346       C  0.10890236  0.12737162  0.28100486    -0.03100
Br1347     Br  0.08883347  0.11668020  0.32258981    -0.01600
Br1348     Br  0.15635888  0.16313983  0.31990352    -0.01700
Br1349     Br  0.08805746  0.11042170  0.18079213    -0.01700
Br1350     Br  0.15935938  0.15090225  0.17848012    -0.01600
C1351       C  0.94997155  0.10931907  0.22947562    -0.02800
C1352       C  0.97434963  0.11699825  0.25284313     0.06900
C1353       C  0.96849133  0.14138361  0.27676041    -0.02900
C1354       C  0.93911454  0.15920505  0.27614035    -0.02900
C1355       C  0.91427642  0.15076878  0.25367317     0.07000
C1356       C  0.91948700  0.12528417  0.23081977    -0.03100
Br1357     Br  0.88518169  0.11269649  0.20087125    -0.01600
Br1358     Br  0.95872470  0.07857075  0.19427103    -0.01700
Br1359     Br  0.93309009  0.19505656  0.30627306    -0.01700
Br1360     Br  0.99951520  0.14900308  0.31183439    -0.01600
C1361       C  0.91685271  0.66962423  0.34935257    -0.02800
C1362       C  0.91503890  0.69403152  0.32476427     0.06900
C1363       C  0.94344935  0.71296967  0.31789786    -0.02900
C1364       C  0.97238849  0.70874647  0.33635897    -0.02900
C1365       C  0.97435715  0.68372511  0.36021647     0.07000
C1366       C  0.94665126  0.66355732  0.36582484    -0.03100
Br1367     Br  0.94987518  0.62575787  0.39429463    -0.01600
Br1368     Br  0.87894159  0.64356595  0.36051734    -0.01700
Br1369     Br  0.00841948  0.73911154  0.33022280    -0.01700
Br1370     Br  0.94313800  0.74597418  0.28405839    -0.01600
C1371       C  0.12404163  0.68610828  0.38115887    -0.02800
C1372       C  0.09579751  0.67444159  0.36424774     0.06900
C1373       C  0.09875889  0.66663122  0.33044642    -0.02900
C1374       C  0.12806779  0.67323489  0.31313221    -0.02900
C1375       C  0.15592883  0.68649494  0.32961645     0.07000
C1376       C  0.15358020  0.69236840  0.36400747    -0.03100
Br1377     Br  0.18956818  0.71180880  0.38855628    -0.01600
Br1378     Br  0.12348307  0.69498317  0.42805343    -0.01700
Br1379     Br  0.12841238  0.66369604  0.26637252    -0.01700
Br1380     Br  0.06340373  0.64445060  0.30744506    -0.01600
C1381       C  0.03586968  0.99496464  0.27731215    -0.02800
C1382       C  0.03511485  0.01433940  0.24887563     0.06900
C1383       C  0.03465912  0.99993456  0.21746097    -0.02900
C1384       C  0.03408521  0.96573943  0.21443393    -0.02900
C1385       C  0.03467178  0.94631363  0.24280856     0.07000
C1386       C  0.03573956  0.96067930  0.27427677    -0.03100
Br1387     Br  0.03671340  0.93351026  0.31296178    -0.01600
Br1388     Br  0.03738521  0.01556529  0.32007764    -0.01700
Br1389     Br  0.03276188  0.94532643  0.17155944    -0.01700
Br1390     Br  0.03554595  0.02701649  0.17869264    -0.01600
C1391       C  0.95811244  0.84355665  0.26280465    -0.02800
C1392       C  0.97472084  0.84440056  0.23252649     0.06900
C1393       C  0.96061377  0.83055797  0.20425937    -0.02900
C1394       C  0.92966283  0.81552099  0.20641726    -0.02900
C1395       C  0.91291070  0.81466050  0.23683956     0.07000
C1396       C  0.92689779  0.82940985  0.26484000    -0.03100
Br1397     Br  0.90420324  0.82920642  0.30645921    -0.01600
Br1398     Br  0.97899026  0.86040058  0.30196658    -0.01700
Br1399     Br  0.90958926  0.79779553  0.16734323    -0.01700
Br1400     Br  0.98354157  0.83263938  0.16278490    -0.01600
C1401       C  0.12662260  0.80154112  0.26620499    -0.02800
C1402       C  0.15377945  0.81048470  0.24676132     0.06900
C1403       C  0.15149824  0.83676548  0.22451353    -0.02900
C1404       C  0.12127047  0.85227420  0.21967095    -0.02900
C1405       C  0.09409961  0.84337669  0.23915630     0.07000
C1406       C  0.09715509  0.81893900  0.26334492    -0.03100
Br1407     Br  0.06211961  0.81116737  0.29441782    -0.01600
Br1408     Br  0.13003686  0.76645995  0.29771880    -0.01700
Br1409     Br  0.11688921  0.88448982  0.18522592    -0.01700
Br1410     Br  0.18955628  0.85141803  0.20036012    -0.01600
C1411       C  0.03144466  0.69939430  0.51668183    -0.02800
C1412       C  0.03175143  0.66992367  0.53472409     0.06900
C1413       C  0.03214288  0.63946932  0.51814859    -0.02900
C1414       C  0.03133486  0.63850335  0.48354404    -0.02900
C1415       C  0.03080095  0.66802070  0.46562128     0.07000
C1416       C  0.03128482  0.69843070  0.48220296    -0.03100
Br1417     Br  0.03267051  0.73883867  0.45746882    -0.01600
Br1418     Br  0.03167642  0.74121142  0.53907199    -0.01700
Br1419     Br  0.03062899  0.59698536  0.46061773    -0.01700
Br1420     Br  0.03419991  0.59929856  0.54298874    -0.01600
C1421       C  0.11550769  0.70233685  0.62675211    -0.02800
C1422       C  0.09111092  0.68079884  0.63901869     0.06900
C1423       C  0.09775387  0.66269873  0.66776980    -0.02900
C1424       C  0.12778483  0.66680234  0.68454942    -0.02900
C1425       C  0.15246717  0.68777640  0.67186244     0.07000
C1426       C  0.14630227  0.70494773  0.64233371    -0.03100
Br1427     Br  0.17900495  0.73396768  0.62369571    -0.01600
Br1428     Br  0.10612707  0.73087143  0.59012602    -0.01700
Br1429     Br  0.13514938  0.64245135  0.72454206    -0.01700
Br1430     Br  0.06663946  0.63067767  0.68351826    -0.01600
C1431       C  0.95026278  0.71087885  0.63013952    -0.02800
C1432       C  0.96897893  0.68247508  0.63657959     0.06900
C1433       C  0.95586608  0.65794188  0.65720813    -0.02900
C1434       C  0.92478587  0.66225416  0.67204315    -0.02900
C1435       C  0.90665872  0.69122420  0.66655060     0.07000
C1436       C  0.91939905  0.71532241  0.64519272    -0.03100
Br1437     Br  0.89565102  0.75563099  0.63824698    -0.01600
Br1438     Br  0.96732459  0.74448591  0.60149934    -0.01700
Br1439     Br  0.90631073  0.62792033  0.69891525    -0.01700
Br1440     Br  0.97982593  0.61780487  0.66407445    -0.01600
C1441       C  0.12026905  0.85004293  0.78479151    -0.02800
C1442       C  0.09501908  0.84330878  0.76218147     0.06900
C1443       C  0.10077656  0.82185395  0.73554645    -0.02900
C1444       C  0.12987160  0.80360239  0.73424540    -0.02900
C1445       C  0.15447464  0.80916931  0.75773794     0.07000
C1446       C  0.15045464  0.83382560  0.78171361    -0.03100
Br1447     Br  0.18642203  0.84613025  0.80961317    -0.01600
Br1448     Br  0.11368839  0.88121767  0.82010257    -0.01700
Br1449     Br  0.13681533  0.77235374  0.69923473    -0.01700
Br1450     Br  0.07118859  0.82077573  0.69865384    -0.01600
C1451       C  0.94448306  0.85445099  0.77871150    -0.02800
C1452       C  0.97394561  0.83936921  0.76734522     0.06900
C1453       C  0.97208070  0.80767107  0.75274451    -0.02900
C1454       C  0.94146180  0.79359974  0.74585411    -0.02900
C1455       C  0.91232859  0.80909177  0.75623588     0.07000
C1456       C  0.91395164  0.83922831  0.77324790    -0.03100
Br1457     Br  0.87451841  0.85902350  0.79085059    -0.01600
Br1458     Br  0.94493937  0.89454271  0.80466229    -0.01700
Br1459     Br  0.93981025  0.75337708  0.72044106    -0.01700
Br1460     Br  0.01027287  0.78119282  0.74294937    -0.01600
C1461       C  0.03466452  0.26561506  0.51919683    -0.02800
C1462       C  0.03565958  0.29542203  0.53682469     0.06900
C1463       C  0.03696147  0.32540998  0.51955083    -0.02900
C1464       C  0.03649992  0.32544067  0.48476977    -0.02900
C1465       C  0.03592407  0.29549894  0.46714428     0.07000
C1466       C  0.03518306  0.26560663  0.48460287    -0.03100
Br1467     Br  0.03428163  0.22435065  0.46131878    -0.01600
Br1468     Br  0.03170905  0.22460541  0.54278091    -0.01700
Br1469     Br  0.03572258  0.36635695  0.46108933    -0.01700
Br1470     Br  0.03977335  0.36623938  0.54352676    -0.01600
C1471       C  0.09116582  0.24889132  0.66653240    -0.02800
C1472       C  0.09010598  0.27427797  0.64286453     0.06900
C1473       C  0.11863058  0.29343732  0.63762636    -0.02900
C1474       C  0.14817540  0.28605509  0.65403122    -0.02900
C1475       C  0.14949675  0.26046244  0.67730307     0.07000
C1476       C  0.12035828  0.24266301  0.68416605    -0.03100
Br1477     Br  0.11988817  0.20904519  0.71730127    -0.01600
Br1478     Br  0.05329604  0.22115570  0.67412622    -0.01700
Br1479     Br  0.18641127  0.31270984  0.64571774    -0.01700
Br1480     Br  0.11698020  0.33189728  0.60997303    -0.01600
C1481       C  0.94141826  0.27441379  0.62084591    -0.02800
C1482       C  0.96891870  0.28743914  0.63761074     0.06900
C1483       C  0.96430845  0.29970639  0.66986712    -0.02900
C1484       C  0.93392893  0.29542713  0.68626152    -0.02900
C1485       C  0.90674774  0.28097565  0.66980938     0.07000
C1486       C  0.91008748  0.27477466  0.63560973    -0.03100
Br1487     Br  0.87248093  0.27099306  0.60693386    -0.01600
Br1488     Br  0.94634400  0.25188958  0.57919422    -0.01700
Br1489     Br  0.92946642  0.31266173  0.73035265    -0.01700
Br1490     Br  0.99909891  0.32366830  0.69159889    -0.01600
C1491       C  0.03369109  0.99735308  0.79029799    -0.02800
C1492       C  0.03078396  0.01216393  0.75933811     0.06900
C1493       C  0.02835854  0.99319113  0.73056304    -0.02900
C1494       C  0.02848928  0.95894867  0.73277370    -0.02900
C1495       C  0.03181583  0.94410795  0.76363821     0.07000
C1496       C  0.03424291  0.96305800  0.79246710    -0.03100
Br1497     Br  0.03779046  0.94202334  0.83468321    -0.01600
Br1498     Br  0.03668588  0.02413177  0.82945203    -0.01700
Br1499     Br  0.02409747  0.93225408  0.69372519    -0.01700
Br1500     Br  0.02613070  0.01411357  0.68820531    -0.01600
C1501       C  0.10990703  0.11485592  0.72755910    -0.02800
C1502       C  0.09116809  0.11415959  0.75647446     0.06900
C1503       C  0.10327707  0.12748786  0.78591751    -0.02900
C1504       C  0.13430468  0.14218886  0.78632907    -0.02900
C1505       C  0.15344665  0.14242428  0.75745482     0.07000
C1506       C  0.14154259  0.12811471  0.72819748    -0.03100
Br1507     Br  0.16724368  0.12859594  0.68830393    -0.01600
Br1508     Br  0.09131399  0.09916079  0.68679815    -0.01700
Br1509     Br  0.15078785  0.16116771  0.82666284    -0.01700
Br1510     Br  0.07761787  0.12531981  0.82565914    -0.01600
C1511       C  0.94989089  0.11002861  0.72378287    -0.02800
C1512       C  0.97197308  0.11520923  0.74979035     0.06900
C1513       C  0.96424215  0.13698398  0.77550686    -0.02900
C1514       C  0.93470960  0.15426688  0.77502655    -0.02900
C1515       C  0.91279167  0.14996365  0.74855619     0.07000
C1516       C  0.92042214  0.12773238  0.72287308    -0.03100
Br1517     Br  0.89174982  0.12233353  0.68550714    -0.01600
Br1518     Br  0.96021531  0.07921394  0.68905992    -0.01700
Br1519     Br  0.92408859  0.18222597  0.81207263    -0.01700
Br1520     Br  0.99295845  0.14154110  0.81287627    -0.01600
C1521       C  0.35315810  0.08287781  0.32135771    -0.02800
C1522       C  0.36308290  0.10277557  0.29469260     0.06900
C1523       C  0.39082687  0.09317659  0.27610535    -0.02900
C1524       C  0.40662206  0.06300898  0.28222590    -0.02900
C1525       C  0.39643835  0.04290436  0.30847391     0.07000
C1526       C  0.37035341  0.05362637  0.32872539    -0.03100
Br1527     Br  0.35974771  0.02965768  0.36804084    -0.01600
Br1528     Br  0.31717385  0.09648118  0.34911621    -0.01700
Br1529     Br  0.44129947  0.04857435  0.25327555    -0.01700
Br1530     Br  0.40741743  0.12085649  0.24164729    -0.01600
C1531       C  0.36127620  0.91671865  0.31591283    -0.02800
C1532       C  0.39475949  0.92054720  0.30711810     0.06900
C1533       C  0.41081279  0.89356435  0.29172850    -0.02900
C1534       C  0.39406747  0.86361093  0.28579940    -0.02900
C1535       C  0.36030258  0.86012033  0.29387686     0.07000
C1536       C  0.34409415  0.88727207  0.30886971    -0.03100
Br1537     Br  0.29808546  0.88510405  0.32103043    -0.01600
Br1538     Br  0.33826758  0.95098189  0.33944161    -0.01700
Br1539     Br  0.41819906  0.82827991  0.26461135    -0.01700
Br1540     Br  0.45546319  0.89736308  0.27593851    -0.01600
C1541       C  0.27461060  0.06110675  0.12239743    -0.02800
C1542       C  0.25205992  0.03841562  0.13578369     0.06900
C1543       C  0.23518320  0.04596914  0.16489067    -0.02900
C1544       C  0.24144256  0.07567698  0.18139031    -0.02900
C1545       C  0.26557936  0.09792652  0.16927467     0.07000
C1546       C  0.28147107  0.09064504  0.13902838    -0.03100
Br1547     Br  0.31323323  0.12002039  0.11939024    -0.01600
Br1548     Br  0.29781637  0.05139100  0.08183501    -0.01700
Br1549     Br  0.21455581  0.08557916  0.21939821    -0.01700
Br1550     Br  0.20214148  0.01604245  0.18141823    -0.01600
C1551       C  0.24574938  0.88850813  0.12753222    -0.02800
C1552       C  0.26152674  0.91786758  0.13767686     0.06900
C1553       C  0.28622314  0.91659774  0.16200960    -0.02900
C1554       C  0.29281047  0.88678331  0.17792378    -0.02900
C1555       C  0.27684832  0.85784231  0.16773439     0.07000
C1556       C  0.25500850  0.85838952  0.14109994    -0.03100
Br1557     Br  0.23672810  0.81810233  0.12363299    -0.01600
Br1558     Br  0.20918922  0.88898045  0.09724734    -0.01700
Br1559     Br  0.32472818  0.88515316  0.21286621    -0.01700
Br1560     Br  0.31279884  0.95455228  0.17253385    -0.01600
C1561       C  0.66462824  0.06773275  0.67853960    -0.02800
C1562       C  0.66922350  0.03993427  0.69882253     0.06900
C1563       C  0.69101221  0.04234250  0.72567880    -0.02900
C1564       C  0.70956295  0.07118443  0.73081369    -0.02900
C1565       C  0.70543689  0.09881491  0.71024368     0.07000
C1566       C  0.68283008  0.09683257  0.68408300    -0.03100
Br1567     Br  0.67824966  0.13334136  0.65431082    -0.01600
Br1568     Br  0.63358200  0.06644484  0.64283538    -0.01700
Br1569     Br  0.73982849  0.07262664  0.76706501    -0.01700
Br1570     Br  0.69305050  0.00752562  0.75792545    -0.01600
C1571       C  0.65680386  0.89553197  0.71933356    -0.02800
C1572       C  0.66906989  0.91859715  0.69649551     0.06900
C1573       C  0.69849328  0.91166978  0.67948686    -0.02900
C1574       C  0.71573188  0.88222846  0.68550077    -0.02900
C1575       C  0.70343009  0.85906684  0.70832615     0.07000
C1576       C  0.67357394  0.86582150  0.72485068    -0.03100
Br1577     Br  0.65610606  0.83562156  0.75703411    -0.01600
Br1578     Br  0.61830487  0.90539282  0.74547106    -0.01700
Br1579     Br  0.75555818  0.87347588  0.66115399    -0.01700
Br1580     Br  0.71467649  0.94196440  0.64679006    -0.01600
C1581       C  0.77273782  0.05767515  0.86335741    -0.02800
C1582       C  0.80184565  0.03930742  0.86091670     0.06900
C1583       C  0.82810462  0.05051146  0.84167189    -0.02900
C1584       C  0.82570727  0.08079246  0.82552147    -0.02900
C1585       C  0.79704352  0.10012342  0.82919515     0.07000
C1586       C  0.77054262  0.08842270  0.84820122    -0.03100
Br1587     Br  0.73002158  0.11295614  0.85155515    -0.01600
Br1588     Br  0.73473369  0.03940155  0.88485135    -0.01700
Br1589     Br  0.86230816  0.09553628  0.79920564    -0.01700
Br1590     Br  0.86726230  0.02411280  0.83750902    -0.01600
C1591       C  0.81687097  0.89134739  0.87282608    -0.02800
C1592       C  0.79851938  0.91936587  0.86379078     0.06900
C1593       C  0.77410789  0.91677055  0.83933148    -0.02900
C1594       C  0.77011748  0.88720174  0.82210111    -0.02900
C1595       C  0.78895441  0.85963443  0.83064159     0.07000
C1596       C  0.81164391  0.86137252  0.85653632    -0.03100
Br1597     Br  0.83682227  0.82302285  0.86858532    -0.01600
Br1598     Br  0.85008491  0.89357256  0.90656237    -0.01700
Br1599     Br  0.73806010  0.88426981  0.78739898    -0.01700
Br1600     Br  0.74378887  0.95237534  0.83111543    -0.01600
C1601       C  0.30555683  0.32081081  0.06386474    -0.02800
C1602       C  0.33695918  0.33331560  0.05657427     0.06900
C1603       C  0.36277756  0.32855787  0.07893461    -0.02900
C1604       C  0.35692679  0.31209119  0.10880413    -0.02900
C1605       C  0.32520239  0.30083738  0.11688014     0.07000
C1606       C  0.29992114  0.30408406  0.09354300    -0.03100
Br1607     Br  0.25766726  0.28463497  0.10154080    -0.01600
Br1608     Br  0.26967129  0.32803502  0.03390180    -0.01700
Br1609     Br  0.39307873  0.30203254  0.13669855    -0.01700
Br1610     Br  0.40641683  0.34348547  0.06800908    -0.01600
C1611       C  0.30255233  0.34197484  0.92062744    -0.02800
C1612       C  0.33332758  0.33983657  0.93614583     0.06900
C1613       C  0.35818314  0.32039513  0.92196777    -0.02900
C1614       C  0.35207049  0.30230107  0.89299331    -0.02900
C1615       C  0.32143324  0.30462299  0.87716555     0.07000
C1616       C  0.29654162  0.32411145  0.89147552    -0.03100
Br1617     Br  0.25307564  0.32328794  0.87335558    -0.01600
Br1618     Br  0.26827428  0.36852423  0.93989081    -0.01700
Br1619     Br  0.38528535  0.27329183  0.87582112    -0.01700
Br1620     Br  0.40098216  0.31947065  0.94195816    -0.01600
C1621       C  0.20379994  0.19355733  0.10012068    -0.02800
C1622       C  0.20062737  0.22049970  0.12177476     0.06900
C1623       C  0.17951725  0.24684562  0.11399556    -0.02900
C1624       C  0.16317986  0.24697086  0.08385313    -0.02900
C1625       C  0.16710290  0.22040950  0.06201916     0.07000
C1626       C  0.18652721  0.19330346  0.07056906    -0.03100
Br1627     Br  0.18768985  0.15463047  0.04319317    -0.01600
Br1628     Br  0.23040274  0.15601148  0.11102924    -0.01700
Br1629     Br  0.13667323  0.28438285  0.07199149    -0.01700
Br1630     Br  0.17398011  0.28398869  0.14326809    -0.01600
C1631       C  0.20717960  0.19399878  0.90286545    -0.02800
C1632       C  0.20477950  0.22146848  0.88206626     0.06900
C1633       C  0.18483986  0.24846554  0.89094225    -0.02900
C1634       C  0.16959638  0.24901145  0.92173445    -0.02900
C1635       C  0.17204758  0.22159872  0.94244014     0.07000
C1636       C  0.19048810  0.19396364  0.93290154    -0.03100
Br1637     Br  0.19125919  0.15506048  0.95954516    -0.01600
Br1638     Br  0.23045749  0.15492705  0.88903190    -0.01700
Br1639     Br  0.14640854  0.28793029  0.93615777    -0.01700
Br1640     Br  0.17712854  0.28449334  0.86115551    -0.01600
C1641       C  0.70844275  0.62530368  0.07977131    -0.02800
C1642       C  0.73487952  0.62131207  0.05767757     0.06900
C1643       C  0.76549718  0.63539850  0.06552883    -0.02900
C1644       C  0.77010072  0.65145720  0.09598869    -0.02900
C1645       C  0.74388968  0.65506419  0.11845212     0.07000
C1646       C  0.71271555  0.64293026  0.10950373    -0.03100
Br1647     Br  0.67528802  0.65278568  0.13632215    -0.01600
Br1648     Br  0.66593109  0.60775024  0.06852738    -0.01700
Br1649     Br  0.81278831  0.66796923  0.10722621    -0.01700
Br1650     Br  0.80150158  0.63217851  0.03483568    -0.01600
C1651       C  0.71530098  0.64576345  0.92968819    -0.02800
C1652       C  0.73248628  0.61625132  0.93590988     0.06900
C1653       C  0.75301323  0.60321627  0.91091976    -0.02900
C1654       C  0.75807429  0.62062842  0.88137388    -0.02900
C1655       C  0.74082731  0.65011969  0.87514010     0.07000
C1656       C  0.71879035  0.66204752  0.89927275    -0.03100
Br1657     Br  0.69222024  0.70021297  0.89055455    -0.01600
Br1658     Br  0.68565422  0.66362230  0.96227407    -0.01700
Br1659     Br  0.79163285  0.60551482  0.85125531    -0.01700
Br1660     Br  0.77577792  0.56207967  0.91701462    -0.01600
C1661       C  0.89853265  0.71031378  0.07982499    -0.02800
C1662       C  0.89382260  0.73596763  0.05728633     0.06900
C1663       C  0.87358681  0.76277224  0.06508376    -0.02900
C1664       C  0.85770205  0.76379762  0.09558957    -0.02900
C1665       C  0.86336498  0.73868032  0.11878192     0.07000
C1666       C  0.88496423  0.71253613  0.11124055    -0.03100
Br1667     Br  0.89561592  0.67857304  0.14271600    -0.01600
Br1668     Br  0.92107396  0.67049942  0.06670031    -0.01700
Br1669     Br  0.82989054  0.80081293  0.10578391    -0.01700
Br1670     Br  0.86853841  0.79860710  0.03454183    -0.01600
C1671       C  0.86647001  0.71374472  0.93471391    -0.02800
C1672       C  0.89671739  0.73040945  0.93729708     0.06900
C1673       C  0.91063588  0.74564908  0.90930855    -0.02900
C1674       C  0.89398794  0.74463042  0.87916203    -0.02900
C1675       C  0.86299312  0.72942247  0.87718199     0.07000
C1676       C  0.84936435  0.71403469  0.90501381    -0.03100
Br1677     Br  0.80765167  0.69196084  0.90271096    -0.01600
Br1678     Br  0.84905260  0.68801506  0.97078051    -0.01700
Br1679     Br  0.91308390  0.76564416  0.84110283    -0.01700
Br1680     Br  0.95168088  0.76946329  0.91187179    -0.01600
C1681       C  0.51417548  0.98990113  0.71293912    -0.02800
C1682       C  0.49659158  0.97513743  0.68702584     0.06900
C1683       C  0.51363336  0.96163565  0.66002280    -0.02900
C1684       C  0.54821829  0.96257728  0.65917349    -0.02900
C1685       C  0.56572213  0.97880025  0.68440241     0.07000
C1686       C  0.54847757  0.99272488  0.71114474    -0.03100
Br1687     Br  0.57173947  0.01409751  0.74662935    -0.01600
Br1688     Br  0.49153937  0.00372915  0.75239982    -0.01700
Br1689     Br  0.57144274  0.94190683  0.62329432    -0.01700
Br1690     Br  0.48949654  0.94289512  0.62378345    -0.01600
C1691       C  0.37805298  0.08855229  0.68276797    -0.02800
C1692       C  0.35972103  0.09407532  0.71172590     0.06900
C1693       C  0.35786292  0.06882163  0.73541352    -0.02900
C1694       C  0.37408872  0.03864333  0.73039043    -0.02900
C1695       C  0.39228915  0.03303776  0.70141520     0.07000
C1696       C  0.39467705  0.05843121  0.67784894    -0.03100
Br1697     Br  0.42024538  0.05198352  0.63832893    -0.01600
Br1698     Br  0.37853733  0.12109747  0.64862964    -0.01700
Br1699     Br  0.37355570  0.00610077  0.76482379    -0.01700
Br1700     Br  0.33415330  0.07577041  0.77584052    -0.01600
C1701       C  0.36499673  0.90381528  0.68588959    -0.02800
C1702       C  0.39519723  0.91059701  0.70155386     0.06900
C1703       C  0.40947297  0.88587457  0.72142638    -0.02900
C1704       C  0.39307020  0.85568331  0.72671373    -0.02900
C1705       C  0.36243653  0.84930693  0.71169362     0.07000
C1706       C  0.34902949  0.87331910  0.69054779    -0.03100
Br1707     Br  0.30961667  0.86386109  0.66594218    -0.01600
Br1708     Br  0.34592635  0.93549466  0.65632228    -0.01700
Br1709     Br  0.41213514  0.82408966  0.75645482    -0.01700
Br1710     Br  0.45093549  0.89333269  0.74325247    -0.01600
C1711       C  0.28043355  0.96633338  0.98743345    -0.02800
C1712       C  0.25338373  0.97364973  0.96758506     0.06900
C1713       C  0.22283176  0.98190057  0.98142648    -0.02900
C1714       C  0.21935545  0.98297283  0.01565988    -0.02900
C1715       C  0.24641324  0.97538807  0.03551982     0.07000
C1716       C  0.27704654  0.96741655  0.02152176    -0.03100
Br1717     Br  0.31498524  0.95983377  0.04889356    -0.01600
Br1718     Br  0.32232911  0.95576749  0.96782602    -0.01700
Br1719     Br  0.17780328  0.99443580  0.03532010    -0.01700
Br1720     Br  0.18584701  0.99088471  0.95341046    -0.01600
C1721       C  0.29451647  0.05631814  0.87481238    -0.02800
C1722       C  0.26902182  0.03438487  0.86679241     0.06900
C1723       C  0.24419237  0.04380910  0.84506596    -0.02900
C1724       C  0.24583213  0.07445849  0.82959340    -0.02900
C1725       C  0.27248303  0.09596516  0.83586297     0.07000
C1726       C  0.29566167  0.08755086  0.86027828    -0.03100
Br1727     Br  0.32835073  0.11842047  0.87544669    -0.01600
Br1728     Br  0.32864017  0.04307441  0.90484824    -0.01700
Br1729     Br  0.20934672  0.08773516  0.80267562    -0.01700
Br1730     Br  0.20677219  0.01533910  0.83816345    -0.01600
C1731       C  0.24699750  0.88648747  0.87479336    -0.02800
C1732       C  0.26687020  0.91335487  0.86511304     0.06900
C1733       C  0.29153015  0.90860641  0.84103644    -0.02900
C1734       C  0.29585344  0.87747893  0.82675061    -0.02900
C1735       C  0.27661965  0.85076835  0.83715460     0.07000
C1736       C  0.25337729  0.85492266  0.86234643    -0.03100
Br1737     Br  0.23039605  0.81750026  0.88001073    -0.01600
Br1738     Br  0.20876160  0.89292542  0.90235602    -0.01700
Br1739     Br  0.32967257  0.87072820  0.79410523    -0.01700
Br1740     Br  0.32058458  0.94374409  0.82777412    -0.01600
C1741       C  0.55084318  0.97965922  0.29739035    -0.02800
C1742       C  0.56814747  0.98181556  0.32726657     0.06900
C1743       C  0.55030257  0.98424147  0.35700178    -0.02900
C1744       C  0.51548851  0.98383867  0.35670674    -0.02900
C1745       C  0.49840255  0.98110413  0.32669975     0.07000
C1746       C  0.51631795  0.97911980  0.29712494    -0.03100
Br1747     Br  0.49348108  0.97638966  0.25577218    -0.01600
Br1748     Br  0.57438591  0.97868273  0.25629099    -0.01700
Br1749     Br  0.49104172  0.98714658  0.39716274    -0.01700
Br1750     Br  0.57354232  0.98879503  0.39789287    -0.01600
C1751       C  0.65907845  0.06567625  0.28466143    -0.02800
C1752       C  0.67034418  0.04428777  0.30952801     0.06900
C1753       C  0.69729054  0.05433405  0.32889568    -0.02900
C1754       C  0.71381524  0.08421916  0.32242902    -0.02900
C1755       C  0.70315543  0.10509335  0.29697013     0.07000
C1756       C  0.67504034  0.09599230  0.27871339    -0.03100
Br1757     Br  0.65900782  0.12404577  0.24412523    -0.01600
Br1758     Br  0.62260461  0.05304201  0.25730059    -0.01700
Br1759     Br  0.75004617  0.09747930  0.34998152    -0.01700
Br1760     Br  0.71015805  0.02863695  0.36620211    -0.01600
C1761       C  0.65729172  0.89631647  0.28985353    -0.02800
C1762       C  0.67208083  0.92134978  0.30922074     0.06900
C1763       C  0.70438214  0.91585430  0.32063079    -0.02900
C1764       C  0.72192985  0.88702186  0.31187745    -0.02900
C1765       C  0.70671603  0.86141384  0.29342495     0.07000
C1766       C  0.67419902  0.86674336  0.28232087    -0.03100
Br1767     Br  0.65321713  0.83524173  0.25351199    -0.01600
Br1768     Br  0.61432727  0.90267498  0.27112603    -0.01700
Br1769     Br  0.76746769  0.88429963  0.32501160    -0.01700
Br1770     Br  0.72460615  0.94666143  0.35039295    -0.01600
C1771       C  0.77475478  0.98565189  0.98028244    -0.02800
C1772       C  0.80552151  0.98225820  0.96504864     0.06900
C1773       C  0.83431038  0.97960422  0.98371988    -0.02900
C1774       C  0.83226849  0.98093583  0.01805114    -0.02900
C1775       C  0.80147034  0.98483618  0.03321882     0.07000
C1776       C  0.77276378  0.98748427  0.01448959    -0.03100
Br1777     Br  0.73075015  0.99288439  0.03574266    -0.01600
Br1778     Br  0.73525241  0.98587003  0.95435739    -0.01700
Br1779     Br  0.87141706  0.97777408  0.04437346    -0.01700
Br1780     Br  0.87610067  0.97335249  0.96226162    -0.01600
C1781       C  0.76915703  0.07283972  0.18415433    -0.02800
C1782       C  0.78812468  0.10009129  0.17459253     0.06900
C1783       C  0.80909387  0.09799661  0.14719219    -0.02900
C1784       C  0.81224577  0.06818351  0.13016367    -0.02900
C1785       C  0.79243274  0.04102753  0.13893869     0.07000
C1786       C  0.77070850  0.04350954  0.16598420    -0.03100
Br1787     Br  0.74156820  0.00779276  0.17764327    -0.01600
Br1788     Br  0.73963588  0.07621624  0.22110783    -0.01700
Br1789     Br  0.84579474  0.06447695  0.09664171    -0.01700
Br1790     Br  0.83402850  0.13586744  0.13309663    -0.01600
C1791       C  0.81992031  0.88360866  0.17335252    -0.02800
C1792       C  0.79517726  0.86024475  0.16588021     0.06900
C1793       C  0.77354441  0.86636358  0.13934508    -0.02900
C1794       C  0.77340103  0.89726509  0.12431634    -0.02900
C1795       C  0.79683373  0.92098273  0.13332534     0.07000
C1796       C  0.82073482  0.91382365  0.15695857    -0.03100
Br1797     Br  0.85561492  0.94493129  0.16568357    -0.01600
Br1798     Br  0.85514581  0.87365681  0.20329110    -0.01700
Br1799     Br  0.73962864  0.90767141  0.09268707    -0.01700
Br1800     Br  0.74513483  0.83288255  0.12115005    -0.01600
C1801       C  0.69198258  0.49696720  0.00182383    -0.02800
C1802       C  0.72173326  0.51468347  0.00100107     0.06900
C1803       C  0.75163522  0.49742445  0.00006784    -0.02900
C1804       C  0.75191846  0.46276570  0.99993258    -0.02900
C1805       C  0.72227740  0.44483675  0.00092627     0.07000
C1806       C  0.69224266  0.46212911  0.00159376    -0.03100
Br1807     Br  0.65154588  0.43802702  0.00125064    -0.01600
Br1808     Br  0.65105270  0.52060323  0.00308356    -0.01700
Br1809     Br  0.79318234  0.43992993  0.99764643    -0.01700
Br1810     Br  0.79242374  0.52155669  0.99880253    -0.01600
C1811       C  0.72169652  0.29458902  0.09909698    -0.02800
C1812       C  0.74373256  0.30731647  0.12289918     0.06900
C1813       C  0.76126223  0.33644817  0.11525942    -0.02900
C1814       C  0.75770854  0.35170163  0.08428850    -0.02900
C1815       C  0.73473228  0.33985634  0.06108126     0.07000
C1816       C  0.71671389  0.31113509  0.06888571    -0.03100
Br1817     Br  0.68395258  0.29483497  0.03893020    -0.01600
Br1818     Br  0.69712488  0.25489768  0.10795802    -0.01700
Br1819     Br  0.78728304  0.38689721  0.07256478    -0.01700
Br1820     Br  0.79243208  0.35476376  0.14602508    -0.01600
C1821       C  0.75885659  0.34912670  0.91772386    -0.02800
C1822       C  0.73224829  0.34113557  0.93851403     0.06900
C1823       C  0.70855814  0.31839830  0.92716669    -0.02900
C1824       C  0.71241690  0.30276305  0.89624952    -0.02900
C1825       C  0.74028644  0.30908308  0.87667112     0.07000
C1826       C  0.76214021  0.33415035  0.88658473    -0.03100
Br1827     Br  0.79569725  0.34964336  0.85688906    -0.01600
Br1828     Br  0.79222440  0.37932350  0.93238721    -0.01700
Br1829     Br  0.67719850  0.27693569  0.87825354    -0.01700
Br1830     Br  0.66996893  0.30977649  0.95308146    -0.01600
C1831       C  0.05048586  0.19373328  0.99396096    -0.02800
C1832       C  0.06685340  0.22379475  0.99842672     0.06900
C1833       C  0.04927501  0.25315128  0.00307778    -0.02900
C1834       C  0.01491017  0.25229513  0.00387691    -0.02900
C1835       C  0.99850858  0.22214808  0.99960939     0.07000
C1836       C  0.01618463  0.19287675  0.99466461    -0.03100
Br1837     Br  0.99343020  0.15153861  0.98999027    -0.01600
Br1838     Br  0.07526391  0.15380315  0.98733548    -0.01700
Br1839     Br  0.99025820  0.29223180  0.01048042    -0.01700
Br1840     Br  0.07227056  0.29439088  0.00744942    -0.01600
C1841       C  0.89442829  0.20658904  0.12030015    -0.02800
C1842       C  0.86594861  0.22574419  0.12409674     0.06900
C1843       C  0.85352716  0.24330013  0.09722184    -0.02900
C1844       C  0.86818473  0.24051903  0.06616316    -0.02900
C1845       C  0.89609390  0.22039274  0.06182480     0.07000
C1846       C  0.90882313  0.20298357  0.08903996    -0.03100
Br1847     Br  0.94410099  0.17171626  0.08343524    -0.01600
Br1848     Br  0.91400947  0.18548264  0.15777543    -0.01700
Br1849     Br  0.84978087  0.26545708  0.03043432    -0.01700
Br1850     Br  0.81809050  0.27381294  0.10368046    -0.01600
C1851       C  0.87422466  0.18855574  0.89227190    -0.02800
C1852       C  0.86256346  0.21874488  0.87995790     0.06900
C1853       C  0.86435703  0.24691718  0.89991653    -0.02900
C1854       C  0.88203086  0.24647223  0.92934633    -0.02900
C1855       C  0.89502217  0.21674872  0.94085937     0.07000
C1856       C  0.89065250  0.18761130  0.92268351    -0.03100
Br1857     Br  0.90640674  0.14654493  0.94012441    -0.01600
Br1858     Br  0.86471480  0.14822225  0.86958686    -0.01700
Br1859     Br  0.88881811  0.28680703  0.95348602    -0.01700
Br1860     Br  0.83749094  0.28409217  0.89017271    -0.01600
C1861       C  0.31893567  0.45658604  0.00763745    -0.02800
C1862       C  0.34863462  0.43969114  0.00265609     0.06900
C1863       C  0.37811459  0.45739339  0.99897326    -0.02900
C1864       C  0.37776060  0.49207148  0.99975639    -0.02900
C1865       C  0.34799676  0.50900010  0.00459593     0.07000
C1866       C  0.31855163  0.49114169  0.00837640    -0.03100
Br1867     Br  0.27726192  0.51392191  0.01233562    -0.01600
Br1868     Br  0.27854252  0.43215015  0.01228032    -0.01700
Br1869     Br  0.41769976  0.51654305  0.99309450    -0.01700
Br1870     Br  0.41870893  0.43402198  0.99243704    -0.01600
C1871       C  0.34177322  0.64872188  0.06545578    -0.02800
C1872       C  0.33352552  0.61485778  0.06279409     0.06900
C1873       C  0.32126797  0.59887760  0.09136415    -0.02900
C1874       C  0.31897804  0.61569107  0.12174968    -0.02900
C1875       C  0.32579902  0.64991836  0.12382726     0.07000
C1876       C  0.33755482  0.66609709  0.09530426    -0.03100
Br1877     Br  0.34957334  0.71235412  0.09637134    -0.01600
Br1878     Br  0.35971290  0.67276164  0.02892057    -0.01700
Br1879     Br  0.30568176  0.59044719  0.15997370    -0.01700
Br1880     Br  0.30379465  0.55456597  0.08950846    -0.01600
C1881       C  0.30524538  0.61194691  0.88706904    -0.02800
C1882       C  0.32275557  0.64082109  0.87864212     0.06900
C1883       C  0.34763606  0.65220251  0.90003834    -0.02900
C1884       C  0.35374872  0.63596409  0.93000695    -0.02900
C1885       C  0.33405833  0.60917734  0.93985767     0.07000
C1886       C  0.31040580  0.59668249  0.91772198    -0.03100
Br1887     Br  0.28381921  0.55918377  0.92963034    -0.01600
Br1888     Br  0.27282620  0.59361716  0.85760855    -0.01700
Br1889     Br  0.39147404  0.64830436  0.95562784    -0.01700
Br1890     Br  0.37496947  0.68896580  0.88754965    -0.01600
C1891       C  0.04672226  0.69162553  0.99992737    -0.02800
C1892       C  0.06503444  0.72072107  0.00323520     0.06900
C1893       C  0.04957415  0.75151972  0.00531737    -0.02900
C1894       C  0.01543564  0.75319253  0.00496632    -0.02900
C1895       C  0.99716656  0.72420292  0.00111266     0.07000
C1896       C  0.01247763  0.69338847  0.99885192    -0.03100
Br1897     Br  0.98644483  0.65390750  0.99527848    -0.01600
Br1898     Br  0.06858007  0.64972751  0.99672026    -0.01700
Br1899     Br  0.99360121  0.79509194  0.00972215    -0.01700
Br1900     Br  0.07501415  0.79150396  0.00693717    -0.01600
C1901       C  0.19523876  0.70658326  0.06793524    -0.02800
C1902       C  0.16828677  0.72751757  0.06241540     0.06900
C1903       C  0.15764913  0.74905943  0.08770254    -0.02900
C1904       C  0.17364401  0.74910085  0.11820228    -0.02900
C1905       C  0.20148080  0.72932203  0.12265999     0.07000
C1906       C  0.21201091  0.70791499  0.09773892    -0.03100
Br1907     Br  0.24828845  0.67861078  0.10515530    -0.01600
Br1908     Br  0.20855652  0.67405654  0.03626143    -0.01700
Br1909     Br  0.15759161  0.77628136  0.15378807    -0.01700
Br1910     Br  0.12275000  0.78016475  0.08059843    -0.01600
C1911       C  0.18825423  0.69830746  0.93266441    -0.02800
C1912       C  0.16618020  0.72322380  0.94174305     0.06900
C1913       C  0.15828246  0.74830475  0.91933760    -0.02900
C1914       C  0.17287967  0.74842318  0.88812232    -0.02900
C1915       C  0.19830725  0.72612890  0.88109861     0.07000
C1916       C  0.20588002  0.70100742  0.90336699    -0.03100
Br1917     Br  0.23905854  0.66898756  0.89293841    -0.01600
Br1918     Br  0.19086283  0.65815816  0.95724358    -0.01700
Br1919     Br  0.15680492  0.77777822  0.85493832    -0.01700
Br1920     Br  0.12786978  0.78268412  0.93133069    -0.01600
loop_ 
_geom_bond_atom_site_label_1 
_geom_bond_atom_site_label_2 
_geom_bond_distance 
_geom_bond_site_symmetry_2 
_ccdc_geom_bond_type 
C1            N2   1.358   1_556  A
C1            N6   1.349       .  A
C1         C1912   1.460       .  S
N2            C3   1.360       .  A
C3            N4   1.354       .  A
C3         C1902   1.473       .  S
N4            C5   1.352       .  A
C5            N6   1.348   1_554  A
C5         C1892   1.446       .  S
C7            N8   1.368       .  A
C7           N12   1.362       .  A
C7         C1872   1.516       .  S
N8            C9   1.367   1_554  A
C9           N10   1.358       .  A
C9         C1885   1.493       .  S
N10          C11   1.355   1_556  A
C11          N12   1.358       .  A
C11        C1865   1.478       .  S
C13          N14   1.356       .  A
C13          N18   1.360       .  A
C13        C1845   1.481       .  S
N14          C15   1.353       .  A
C15          N16   1.353   1_554  A
C15        C1835   1.456   1_554  S
N16          C17   1.353       .  A
C17          N18   1.359   1_556  A
C17        C1855   1.465       .  S
C19          N20   1.363       .  A
C19          N24   1.367       .  A
C19        C1822   1.496       .  S
N20          C21   1.360   1_556  A
C21          N22   1.363       .  A
C21        C1805   1.492       .  S
N22          C23   1.366       .  A
C23          N24   1.368   1_554  A
C23        C1815   1.509       .  S
C25          N26   1.351       .  A
C25          N30   1.354       .  A
C25        C1795   1.459       .  S
N26          C27   1.350       .  A
C27          N28   1.352   1_565  A
C27        C1775   1.450       .  S
N28          C29   1.355       .  A
C29          N30   1.355   1_545  A
C29        C1785   1.472       .  S
C31          N32   1.363       .  A
C31          N36   1.368   1_545  A
C31        C1752   1.502       .  S
N32          C33   1.361   1_545  A
C33          N34   1.363       .  A
C33        C1742   1.492       .  S
N34          C35   1.366       .  A
C35          N36   1.369       .  A
C35        C1762   1.517       .  S
C37          N38   1.350       .  A
C37          N42   1.358   1_545  A
C37        C1722   1.461       .  S
N38          C39   1.349   1_545  A
C39          N40   1.350       .  A
C39        C1712   1.448       .  S
N40          C41   1.354       .  A
C41          N42   1.358       .  A
C41        C1732   1.477       .  S
C43          N44   1.360       .  A
C43          N48   1.366       .  A
C43        C1702   1.501       .  S
N44          C45   1.358       .  A
C45          N46   1.356   1_565  A
C45        C1682   1.476       .  S
N46          C47   1.356       .  A
C47          N48   1.365   1_545  A
C47        C1695   1.491       .  S
C49          N50   1.353   1_554  A
C49          N54   1.348       .  A
C49        C1662   1.454       .  S
N50          C51   1.357       .  A
C51          N52   1.353       .  A
C51        C1672   1.470       .  S
N52          C53   1.350       .  A
C53          N54   1.345   1_556  A
C53        C1895   1.442   1_556  S
C55          N56   1.362       .  A
C55          N60   1.363   1_554  A
C55        C1642   1.491       .  S
N56          C57   1.361   1_554  A
C57          N58   1.361       .  A
C57        C1802   1.486   1_556  S
N58          C59   1.362       .  A
C59          N60   1.364       .  A
C59        C1652   1.499       .  S
C61          N62   1.354   1_556  A
C61          N66   1.354       .  A
C61        C1635   1.456       .  S
N62          C63   1.355       .  A
C63          N64   1.352       .  A
C63        C1625   1.455       .  S
N64          C65   1.350   1_554  A
C65          N66   1.351       .  A
C65        C1832   1.452       .  S
C67          N68   1.359       .  A
C67          N72   1.360       .  A
C67        C1612   1.481       .  S
N68          C69   1.360   1_556  A
C69          N70   1.358       .  A
C69        C1862   1.474       .  S
N70          C71   1.358       .  A
C71          N72   1.360   1_554  A
C71        C1602   1.478       .  S
C73          N74   1.353       .  A
C73          N78   1.357       .  A
C73        C1592   1.469       .  S
N74          C75   1.351       .  A
C75          N76   1.352   1_565  A
C75        C1772   1.449       .  S
N76          C77   1.352       .  A
C77          N78   1.354   1_545  A
C77        C1582   1.459       .  S
C79          N80   1.359       .  A
C79          N84   1.362   1_545  A
C79        C1562   1.494       .  S
N80          C81   1.361   1_545  A
C81          N82   1.357       .  A
C81        C1685   1.480       .  S
N82          C83   1.358       .  A
C83          N84   1.360       .  A
C83        C1572   1.488       .  S
C85          N86   1.353       .  A
C85          N90   1.361   1_545  A
C85        C1542   1.470       .  S
N86          C87   1.349   1_545  A
C87          N88   1.347       .  A
C87        C1715   1.451       .  S
N88          C89   1.350       .  A
C89          N90   1.358       .  A
C89        C1552   1.475       .  S
C91          N92   1.364       .  A
C91          N96   1.366       .  A
C91        C1532   1.514       .  S
N92          C93   1.362       .  A
C93          N94   1.360   1_565  A
C93        C1745   1.489       .  S
N94          C95   1.361       .  A
C95          N96   1.364   1_545  A
C95        C1525   1.493       .  S
C97          N98   1.356       .  A
C97         N102   1.352       .  A
C97        C1512   1.457   1_455  S
N98          C99   1.353       .  A
C99         N100   1.350       .  A
C99        C1502   1.449       .  S
N100        C101   1.349       .  A
C101        N102   1.351       .  A
C101       C1492   1.446       .  S
C103        N104   1.363       .  A
C103        N108   1.362       .  A
C103       C1482   1.501   1_455  S
N104        C105   1.362       .  A
C105        N106   1.362       .  A
C105       C1472   1.499       .  S
N106        C107   1.360       .  A
C107        N108   1.359       .  A
C107       C1462   1.484       .  S
C109        N110   1.350       .  A
C109        N114   1.359       .  A
C109       C1442   1.465       .  S
N110        C111   1.349       .  A
C111        N112   1.349       .  A
C111       C1495   1.446       .  S
N112        C113   1.353       .  A
C113        N114   1.359       .  A
C113       C1452   1.493   1_455  S
C115        N116   1.358       .  A
C115        N120   1.366       .  A
C115       C1432   1.487   1_455  S
N116        C117   1.356       .  A
C117        N118   1.357       .  A
C117       C1412   1.473       .  S
N118        C119   1.360       .  A
C119        N120   1.367       .  A
C119       C1422   1.497       .  S
C121        N122   1.358       .  A
C121        N126   1.352       .  A
C121       C1405   1.461       .  S
N122        C123   1.356       .  A
C123        N124   1.352       .  A
C123       C1392   1.457   1_455  S
N124        C125   1.350       .  A
C125        N126   1.349       .  A
C125       C1385   1.447       .  S
C127        N128   1.363       .  A
C127        N132   1.356       .  A
C127       C1372   1.505       .  S
N128        C129   1.361       .  A
C129        N130   1.359       .  A
C129       C1365   1.492   1_455  S
N130        C131   1.357       .  A
C131        N132   1.355       .  A
C131       C1415   1.470       .  S
C133        N134   1.353       .  A
C133        N138   1.357       .  A
C133       C1352   1.467   1_455  S
N134        C135   1.352       .  A
C135        N136   1.350       .  A
C135       C1382   1.447       .  S
N136        C137   1.350       .  A
C137        N138   1.355       .  A
C137       C1345   1.452       .  S
C139        N140   1.365       .  A
C139        N144   1.368       .  A
C139       C1325   1.509       .  S
N140        C141   1.361       .  A
C141        N142   1.359       .  A
C141       C1465   1.489       .  S
N142        C143   1.362       .  A
C143        N144   1.367       .  A
C143       C1335   1.496   1_455  S
C145        N146   1.352       .  A
C145        N150   1.357       .  A
C145       C1302   1.472       .  S
N146        C147   1.348       .  A
C147        N148   1.347       .  A
C147       C1292   1.440       .  S
N148        C149   1.348       .  A
C149        N150   1.354       .  A
C149       C1315   1.464       .  S
C151        N152   1.360       .  A
C151        N156   1.360       .  A
C151       C1282   1.479       .  S
N152        C153   1.359       .  A
C153        N154   1.357       .  A
C153       C1275   1.475       .  S
N154        C155   1.357       .  A
C155        N156   1.361       .  A
C155       C1262   1.477       .  S
O157       Zr193   2.432       .  S
O157        C168   1.291       .  A
O158       Zr192   2.448       .  S
O158        C169   1.291       .  A
O159       Zr165   2.440       .  S
O159        C170   1.291       .  A
O160       Zr165   2.424       .  S
O160        C171   1.289       .  A
O161       Zr195   2.422       .  S
O161        C171   1.289       .  A
O162       Zr194   2.470       .  S
O162        C170   1.298       .  A
O163       Zr165   2.429       .  S
O163        C169   1.287       .  A
O164       Zr165   2.406       .  S
O164        C168   1.286       .  A
Zr165       O166   2.332       .  S
Zr165       O167   2.347       .  S
Zr165       O175   2.343       .  S
Zr165       O173   2.328       .  S
O166       Zr192   2.325       .  S
O166       Zr195   2.344       .  S
O167       Zr193   2.330       .  S
O167       Zr194   2.330       .  S
C168       C1905   1.457       .  S
C169       C1375   1.508       .  S
C170       C1272   1.483       .  S
C171       C1402   1.460       .  S
H172        O173   0.976       .  S
O173       Zr192   2.325       .  S
O173       Zr194   2.350       .  S
H174        O175   0.963       .  S
O175       Zr193   2.343       .  S
O175       Zr195   2.346       .  S
O176       Zr192   2.404       .  S
O176        C199   1.285       .  A
O177       Zr193   2.436       .  S
O177        C200   1.291       .  A
O178       Zr194   2.388       .  S
O178        C201   1.282       .  A
O179       Zr195   2.447       .  S
O179        C202   1.293       .  A
O180       Zr195   2.432       .  S
O180        C203   1.291       .  A
O181       Zr194   2.428       .  S
O181        C204   1.287       .  A
O182       Zr196   2.410       .  S
O182        C205   1.286       .  A
O183       Zr196   2.454       .  S
O183        C206   1.293       .  A
O184       Zr194   2.462       .  S
O184        C205   1.297       .  A
O185       Zr195   2.441       .  S
O185        C206   1.291       .  A
O186       Zr192   2.436       .  S
O186        C201   1.292       .  A
O187       Zr193   2.443       .  S
O187        C204   1.291       .  A
O188       Zr193   2.413       .  S
O188        C203   1.287       .  A
O189       Zr192   2.452       .  S
O189        C202   1.294       .  A
O190       Zr196   2.460       .  S
O190        C199   1.296       .  A
O191       Zr196   2.464       .  S
O191        C200   1.297       .  A
Zr192       O198   2.336       .  S
Zr192       O210   2.349       .  S
Zr193       O197   2.349       .  S
Zr193       O208   2.329       .  S
Zr194       O198   2.333       .  S
Zr194       O208   2.323       .  S
Zr195       O197   2.337       .  S
Zr195       O210   2.334       .  S
Zr196       O197   2.333       .  S
Zr196       O198   2.336       .  S
Zr196       O210   2.334       .  S
Zr196       O208   2.352       .  S
C199       C1242   1.480       .  S
C200       C1235   1.477       .  S
C201       C1305   1.463       .  S
C202       C1255   1.479       .  S
C203       C1555   1.462       .  S
C204       C1875   1.506       .  S
C205       C1225   1.485       .  S
C206       C1535   1.511       .  S
H207        O208   0.960       .  S
H209        O210   0.956       .  S
C211        N212   1.350       .  A
C211        N216   1.347       .  A
C211       C1212   1.442       .  S
N212        C213   1.352       .  A
C213        N214   1.357       .  A
C213       C1202   1.471       .  S
N214        C215   1.356       .  A
C215        N216   1.348       .  A
C215       C1192   1.450       .  S
C217        N218   1.369       .  A
C217        N222   1.364       .  A
C217       C1182   1.511       .  S
N218        C219   1.364       .  A
C219        N220   1.354       .  A
C219       C1172   1.493       .  S
N220        C221   1.351       .  A
C221        N222   1.359       .  A
C221       C1162   1.473       .  S
O223       Zr259   2.425       .  S
O223        C234   1.290       .  A
O224       Zr258   2.466       .  S
O224        C235   1.297       .  A
O225       Zr231   2.486       .  S
O225        C236   1.301       .  A
O226       Zr231   2.428       .  S
O226        C237   1.291       .  A
O227       Zr261   2.402       .  S
O227        C237   1.285       .  A
O228       Zr260   2.443       .  S
O228        C236   1.292       .  A
O229       Zr231   2.439       .  S
O229        C235   1.292       .  A
O230       Zr231   2.434       .  S
O230        C234   1.290       .  A
Zr231       O232   2.351       .  S
Zr231       O233   2.340       .  S
Zr231       O241   2.348       .  S
Zr231       O239   2.332       .  S
O232       Zr258   2.321       .  S
O232       Zr261   2.337       .  S
O233       Zr259   2.346       .  S
O233       Zr260   2.331       .  S
C234       C1725   1.482       .  S
C235       C1615   1.487       .  S
C236       C1135   1.497       .  S
C237       C1632   1.460       .  S
H238        O239   0.967       .  S
O239       Zr258   2.347       .  S
O239       Zr260   2.349       .  S
H240        O241   0.966       .  S
O241       Zr259   2.343       .  S
O241       Zr261   2.346       .  S
O242       Zr258   2.419       .  S
O242        C265   1.288       .  A
O243       Zr259   2.462       .  S
O243        C266   1.296       .  A
O244       Zr260   2.437       .  S
O244        C267   1.293       .  A
O245       Zr261   2.471       .  S
O245        C268   1.297       .  A
O246       Zr261   2.416       .  S
O246        C269   1.288       .  A
O247       Zr260   2.472       .  S
O247        C270   1.298       .  A
O248       Zr262   2.414       .  S
O248        C271   1.285       .  A
O249       Zr262   2.473       .  S
O249        C272   1.298       .  A
O250       Zr260   2.418       .  S
O250        C271   1.285       .  A
O251       Zr261   2.436       .  S
O251        C272   1.291       .  A
O252       Zr258   2.410       .  S
O252        C267   1.287       .  A
O253       Zr259   2.436       .  S
O253        C270   1.291       .  A
O254       Zr259   2.412       .  S
O254        C269   1.287       .  A
O255       Zr258   2.431       .  S
O255        C268   1.288       .  A
O256       Zr262   2.426       .  S
O256        C265   1.290       .  A
O257       Zr262   2.424       .  S
O257        C266   1.289       .  A
Zr258       O264   2.338       .  S
Zr258       O276   2.345       .  S
Zr259       O263   2.338       .  S
Zr259       O274   2.323       .  S
Zr260       O264   2.342       .  S
Zr260       O274   2.346       .  S
Zr261       O263   2.340       .  S
Zr261       O276   2.318       .  S
Zr262       O263   2.317       .  S
Zr262       O264   2.343       .  S
Zr262       O276   2.335       .  S
Zr262       O274   2.352       .  S
C265       C1142   1.455       .  S
C266       C1175   1.489       .  S
C267       C1125   1.469       .  S
C268       C1152   1.509       .  S
C269       C1505   1.457       .  S
C270       C1692   1.493       .  S
C271       C1205   1.490       .  S
C272       C1475   1.501       .  S
H273        O274   0.966       .  S
H275        O276   0.966       .  S
C277        N278   1.352       .  A
C277        N282   1.359       .  A
C277       C1245   1.476       .  S
N278        C279   1.349       .  A
C279        N280   1.349       .  A
C279       C1102   1.447       .  S
N280        C281   1.350       .  A
C281        N282   1.356       .  A
C281       C1115   1.460       .  S
C283        N284   1.359       .  A
C283        N288   1.366       .  A
C283       C1092   1.488       .  S
N284        C285   1.358       .  A
C285        N286   1.355       .  A
C285       C1165   1.469       .  S
N286        C287   1.355       .  A
C287        N288   1.363       .  A
C287       C1252   1.480       .  S
C289        N290   1.355       .  A
C289        N294   1.351       .  A
C289       C1082   1.461       .  S
N290        C291   1.357       .  A
C291        N292   1.353       .  A
C291       C1145   1.459       .  S
N292        C293   1.351       .  A
C293        N294   1.349       .  A
C293       C1295   1.445       .  S
C295        N296   1.362       .  A
C295        N300   1.362       .  A
C295       C1155   1.502       .  S
N296        C297   1.359       .  A
C297        N298   1.355       .  A
C297       C1062   1.470       .  S
N298        C299   1.354       .  A
C299        N300   1.360       .  A
C299       C1072   1.478       .  S
O301       Zr337   2.434       .  S
O301        C312   1.292       .  A
O302       Zr336   2.453       .  S
O302        C313   1.294       .  A
O303       Zr309   2.431       .  S
O303        C314   1.290       .  A
O304       Zr309   2.448       .  S
O304        C315   1.293       .  A
O305       Zr339   2.443       .  S
O305        C315   1.293       .  A
O306       Zr338   2.426       .  S
O306        C314   1.289       .  A
O307       Zr309   2.444       .  S
O307        C313   1.293       .  A
O308       Zr309   2.418       .  S
O308        C312   1.288       .  A
Zr309       O310   2.333       .  S
Zr309       O311   2.341       .  S
Zr309       O319   2.355       .  S
Zr309       O317   2.339       .  S
O310       Zr336   2.339       .  S
O310       Zr339   2.346       .  S
O311       Zr337   2.349       .  S
O311       Zr338   2.338       .  S
C312       C1915   1.459       .  S
C313       C1425   1.496       .  S
C314       C1445   1.463       .  S
C315       C1075   1.482       .  S
H316        O317   0.966       .  S
O317       Zr336   2.333       .  S
O317       Zr338   2.339       .  S
H318        O319   0.970       .  S
O319       Zr337   2.353       .  S
O319       Zr339   2.329       .  S
O320       Zr336   2.423       .  S
O320        C343   1.290       .  A
O321       Zr337   2.474       .  S
O321        C344   1.299       .  A
O322       Zr338   2.454       .  S
O322        C345   1.295       .  A
O323       Zr339   2.423       .  S
O323        C346   1.289       .  A
O324       Zr339   2.453       .  S
O324        C347   1.294       .  A
O325       Zr338   2.426       .  S
O325        C348   1.290       .  A
O326       Zr340   2.464       .  S
O326        C349   1.296       .  A
O327       Zr340   2.422       .  S
O327        C350   1.290       .  A
O328       Zr338   2.435       .  S
O328        C349   1.291       .  A
O329       Zr339   2.423       .  S
O329        C350   1.289       .  A
O330       Zr336   2.438       .  S
O330        C345   1.293       .  A
O331       Zr337   2.431       .  S
O331        C348   1.291       .  A
O332       Zr337   2.452       .  S
O332        C347   1.294       .  A
O333       Zr336   2.438       .  S
O333        C346   1.292       .  A
O334       Zr340   2.427       .  S
O334        C343   1.290       .  A
O335       Zr340   2.427       .  S
O335        C344   1.290       .  A
Zr336       O342   2.344       .  S
Zr336       O354   2.335       .  S
Zr337       O341   2.329       .  S
Zr337       O352   2.346       .  S
Zr338       O342   2.331       .  S
Zr338       O352   2.343       .  S
Zr339       O341   2.343       .  S
Zr339       O354   2.342       .  S
Zr340       O341   2.348       .  S
Zr340       O342   2.330       .  S
Zr340       O354   2.340       .  S
Zr340       O352   2.329       .  S
C343       C1112   1.471       .  S
C344       C1052   1.496       .  S
C345       C1095   1.489       .  S
C346       C1085   1.479       .  S
C347       C1882   1.497       .  S
C348       C1735   1.465       .  S
C349       C1705   1.499       .  S
C350       C1042   1.462       .  S
H351        O352   0.965       .  S
H353        O354   0.965       .  S
C355        N356   1.349       .  A
C355        N360   1.350       .  A
C355       C1032   1.446       .  S
N356        C357   1.351       .  A
C357        N358   1.352       .  A
C357       C1012   1.448       .  S
N358        C359   1.353       .  A
C359        N360   1.351       .  A
C359       C1022   1.446       .  S
C361        N362   1.361       .  A
C361        N366   1.361       .  A
C361        C992   1.501       .  S
N362        C363   1.364       .  A
C363        N364   1.355       .  A
C363       C1002   1.480       .  S
N364        C365   1.354       .  A
C365        N366   1.360       .  A
C365       C1265   1.475       .  S
C367        N368   1.361       .  A
C367        N372   1.354       .  A
C367        C982   1.481       .  S
N368        C369   1.362       .  A
C369        N370   1.351       .  A
C369       C1222   1.484       .  S
N370        C371   1.347       .  A
C371        N372   1.351       .  A
C371        C975   1.448       .  S
C373        N374   1.360       .  A
C373        N378   1.362       .  A
C373        C962   1.484       .  S
N374        C375   1.360       .  A
C375        N376   1.358       .  A
C375        C952   1.479       .  S
N376        C377   1.358       .  A
C377        N378   1.360       .  A
C377       C1232   1.478       .  S
O379       Zr415   2.425       .  S
O379        C390   1.290       .  A
O380       Zr414   2.484       .  S
O380        C391   1.300       .  A
O381       Zr387   2.418       .  S
O381        C392   1.288       .  A
O382       Zr387   2.463       .  S
O382        C393   1.297       .  A
O383       Zr417   2.426       .  S
O383        C393   1.289       .  A
O384       Zr416   2.405       .  S
O384        C392   1.285       .  A
O385       Zr387   2.443       .  S
O385        C391   1.292       .  A
O386       Zr387   2.421       .  S
O386        C390   1.287       .  A
Zr387       O388   2.326       .  S
Zr387       O389   2.339       .  S
Zr387       O397   2.344       .  S
Zr387       O395   2.343       .  S
O388       Zr414   2.338       .  S
O388       Zr417   2.351       .  S
O389       Zr415   2.336       .  S
O389       Zr416   2.335       .  S
C390       C1792   1.482       .  S
C391       C1645   1.497       .  S
C392       C1665   1.463       .  S
C393        C965   1.483       .  S
H394        O395   0.969       .  S
O395       Zr414   2.320       .  S
O395       Zr416   2.345       .  S
H396        O397   0.966       .  S
O397       Zr415   2.358       .  S
O397       Zr417   2.333       .  S
O398       Zr414   2.398       .  S
O398        C421   1.284       .  A
O399       Zr415   2.476       .  S
O399        C422   1.299       .  A
O400       Zr416   2.448       .  S
O400        C423   1.293       .  A
O401       Zr417   2.444       .  S
O401        C424   1.293       .  A
O402       Zr417   2.487       .  S
O402        C425   1.301       .  A
O403       Zr416   2.413       .  S
O403        C426   1.287       .  A
O404       Zr418   2.454       .  S
O404        C427   1.294       .  A
O405       Zr418   2.432       .  S
O405        C428   1.290       .  A
O406       Zr416   2.450       .  S
O406        C427   1.293       .  A
O407       Zr417   2.410       .  S
O407        C428   1.286       .  A
O408       Zr414   2.454       .  S
O408        C423   1.295       .  A
O409       Zr415   2.440       .  S
O409        C426   1.292       .  A
O410       Zr415   2.442       .  S
O410        C425   1.291       .  A
O411       Zr414   2.438       .  S
O411        C424   1.292       .  A
O412       Zr418   2.430       .  S
O412        C421   1.291       .  A
O413       Zr418   2.416       .  S
O413        C422   1.287       .  A
Zr414       O420   2.351       .  S
Zr414       O432   2.360       .  S
Zr415       O419   2.325       .  S
Zr415       O430   2.341       .  S
Zr416       O420   2.317       .  S
Zr416       O430   2.339       .  S
Zr417       O419   2.339       .  S
Zr417       O432   2.352       .  S
Zr418       O419   2.343       .  S
Zr418       O420   2.336       .  S
Zr418       O432   2.342       .  S
Zr418       O430   2.327       .  S
C421       C1025   1.443       .  S
C422        C942   1.480       .  S
C423        C995   1.500       .  S
C424        C985   1.493       .  S
C425       C1765   1.518       .  S
C426       C1395   1.467       .  S
C427       C1362   1.499       .  S
C428        C932   1.478       .  S
H429        O430   0.966       .  S
H431        O432   0.965       .  S
C433        N434   1.345       .  A
C433        N438   1.355       .  A
C433        C922   1.447       .  S
N434        C435   1.345       .  A
C435        N436   1.355       .  A
C435       C1105   1.449       .  S
N436        C437   1.358       .  A
C437        N438   1.357       .  A
C437        C935   1.468       .  S
C439        N440   1.359       .  A
C439        N444   1.361       .  A
C439        C915   1.486       .  S
N440        C441   1.357       .  A
C441        N442   1.362       .  A
C441        C902   1.481       .  S
N442        C443   1.362       .  A
C443        N444   1.359       .  A
C443        C945   1.483       .  S
C445        N446   1.356       .  A
C445        N450   1.358       .  A
C445        C892   1.467       .  S
N446        C447   1.353       .  A
C447        N448   1.350       .  A
C447        C882   1.454       .  S
N448        C449   1.351       .  A
C449        N450   1.355       .  A
C449       C1045   1.455       .  S
C451        N452   1.363       .  A
C451        N456   1.367       .  A
C451       C1055   1.504       .  S
N452        C453   1.362       .  A
C453        N454   1.357       .  A
C453        C955   1.479       .  S
N454        C455   1.356       .  A
C455        N456   1.364       .  A
C455        C872   1.485       .  S
C457        N458   1.355       .  A
C457        N462   1.359       .  A
C457        C852   1.493       .  S
N458        C459   1.352       .  A
C459        N460   1.345       .  A
C459       C1015   1.445       .  S
N460        C461   1.345       .  A
C461        N462   1.356       .  A
C461        C862   1.455       .  S
C463        N464   1.362       .  A
C463        N468   1.360       .  A
C463        C842   1.482       .  S
N464        C465   1.358       .  A
C465        N466   1.354       .  A
C465        C835   1.470       .  S
N466        C467   1.354       .  A
C467        N468   1.358       .  A
C467       C1065   1.467       .  S
O469       Zr505   2.419       .  S
O469        C480   1.289       .  A
O470       Zr504   2.458       .  S
O470        C481   1.295       .  A
O471       Zr477   2.447       .  S
O471        C482   1.293       .  A
O472       Zr477   2.410       .  S
O472        C483   1.288       .  A
O473       Zr507   2.447       .  S
O473        C483   1.294       .  A
O474       Zr506   2.429       .  S
O474        C482   1.290       .  A
O475       Zr477   2.442       .  S
O475        C481   1.292       .  A
O476       Zr477   2.432       .  S
O476        C480   1.291       .  A
Zr477       O478   2.347       .  S
Zr477       O479   2.335       .  S
Zr477       O487   2.347       .  S
Zr477       O485   2.329       .  S
O478       Zr504   2.328       .  S
O478       Zr507   2.339       .  S
O479       Zr505   2.345       .  S
O479       Zr506   2.324       .  S
C480       C1675   1.468       .  S
C481       C1435   1.487       .  S
C482        C845   1.480       .  S
C483       C1455   1.475       .  S
H484        O485   0.965       .  S
O485       Zr504   2.338       .  S
O485       Zr506   2.342       .  S
H486        O487   0.965       .  S
O487       Zr505   2.347       .  S
O487       Zr507   2.350       .  S
O488       Zr504   2.418       .  S
O488        C511   1.289       .  A
O489       Zr505   2.453       .  S
O489        C512   1.294       .  A
O490       Zr506   2.416       .  S
O490        C513   1.288       .  A
O491       Zr507   2.461       .  S
O491        C514   1.295       .  A
O492       Zr507   2.415       .  S
O492        C515   1.288       .  A
O493       Zr506   2.447       .  S
O493        C516   1.293       .  A
O494       Zr508   2.437       .  S
O494        C517   1.292       .  A
O495       Zr508   2.443       .  S
O495        C518   1.293       .  A
O496       Zr506   2.408       .  S
O496        C517   1.286       .  A
O497       Zr507   2.443       .  S
O497        C518   1.293       .  A
O498       Zr504   2.419       .  S
O498        C513   1.289       .  A
O499       Zr505   2.452       .  S
O499        C516   1.295       .  A
O500       Zr505   2.428       .  S
O500        C515   1.290       .  A
O501       Zr504   2.435       .  S
O501        C514   1.291       .  A
O502       Zr508   2.409       .  S
O502        C511   1.286       .  A
O503       Zr508   2.443       .  S
O503        C512   1.292       .  A
Zr504       O510   2.340       .  S
Zr504       O522   2.338       .  S
Zr505       O509   2.341       .  S
Zr505       O520   2.323       .  S
Zr506       O510   2.333       .  S
Zr506       O520   2.334       .  S
Zr507       O509   2.354       .  S
Zr507       O522   2.326       .  S
Zr508       O509   2.328       .  S
Zr508       O510   2.335       .  S
Zr508       O522   2.345       .  S
Zr508       O520   2.334       .  S
C511        C925   1.456       .  S
C512        C875   1.483       .  S
C513        C865   1.465       .  S
C514        C912   1.492       .  S
C515       C1595   1.458       .  S
C516       C1655   1.498       .  S
C517        C895   1.473       .  S
C518       C1575   1.492       .  S
H519        O520   0.965       .  S
H521        O522   0.965       .  S
C523        N524   1.354       .  A
C523        N528   1.349       .  A
C523        C815   1.451       .  S
N524        C525   1.355       .  A
C525        N526   1.353       .  A
C525        C822   1.450       .  S
N526        C527   1.350       .  A
C527        N528   1.345       .  A
C527        C972   1.444       .  S
C529        N530   1.364       .  A
C529        N534   1.366       .  A
C529        C802   1.509       .  S
N530        C531   1.363       .  A
C531        N532   1.358       .  A
C531        C782   1.481       .  S
N532        C533   1.356       .  A
C533        N534   1.364       .  A
C533        C792   1.485       .  S
O535       Zr571   2.442       .  S
O535        C546   1.294       .  A
O536       Zr570   2.451       .  S
O536        C547   1.294       .  A
O537       Zr543   2.473       .  S
O537        C548   1.298       .  A
O538       Zr543   2.430       .  S
O538        C549   1.291       .  A
O539       Zr573   2.445       .  S
O539        C549   1.293       .  A
O540       Zr572   2.426       .  S
O540        C548   1.289       .  A
O541       Zr543   2.459       .  S
O541        C547   1.295       .  A
O542       Zr543   2.428       .  S
O542        C546   1.290       .  A
Zr543       O544   2.350       .  S
Zr543       O545   2.351       .  S
Zr543       O553   2.360       .  S
Zr543       O551   2.322       .  S
O544       Zr570   2.326       .  S
O544       Zr573   2.347       .  S
O545       Zr571   2.348       .  S
O545       Zr572   2.326       .  S
C546       C1842   1.473       .  S
C547       C1332   1.498       .  S
C548       C1005   1.492       .  S
C549       C1355   1.470       .  S
H550        O551   0.966       .  S
O551       Zr570   2.339       .  S
O551       Zr572   2.349       .  S
H552        O553   0.966       .  S
O553       Zr571   2.358       .  S
O553       Zr573   2.353       .  S
O554       Zr570   2.416       .  S
O554        C577   1.288       .  A
O555       Zr571   2.483       .  S
O555        C578   1.300       .  A
O556       Zr572   2.420       .  S
O556        C579   1.289       .  A
O557       Zr573   2.457       .  S
O557        C580   1.295       .  A
O558       Zr573   2.427       .  S
O558        C581   1.291       .  A
O559       Zr572   2.468       .  S
O559        C582   1.297       .  A
O560       Zr574   2.423       .  S
O560        C583   1.289       .  A
O561       Zr574   2.450       .  S
O561        C584   1.294       .  A
O562       Zr572   2.416       .  S
O562        C583   1.288       .  A
O563       Zr573   2.461       .  S
O563        C584   1.296       .  A
O564       Zr570   2.411       .  S
O564        C579   1.287       .  A
O565       Zr571   2.452       .  S
O565        C582   1.294       .  A
O566       Zr571   2.424       .  S
O566        C581   1.290       .  A
O567       Zr570   2.438       .  S
O567        C580   1.291       .  A
O568       Zr574   2.432       .  S
O568        C577   1.291       .  A
O569       Zr574   2.439       .  S
O569        C578   1.291       .  A
Zr570       O576   2.342       .  S
Zr570       O588   2.345       .  S
Zr571       O575   2.342       .  S
Zr571       O586   2.329       .  S
Zr572       O576   2.340       .  S
Zr572       O586   2.334       .  S
Zr573       O575   2.344       .  S
Zr573       O588   2.334       .  S
Zr574       O575   2.330       .  S
Zr574       O576   2.333       .  S
Zr574       O588   2.340       .  S
Zr574       O586   2.347       .  S
C577        C762   1.473       .  S
C578        C805   1.508       .  S
C579       C1035   1.463       .  S
C580        C775   1.487       .  S
C581       C1782   1.462       .  S
C582       C1812   1.510       .  S
C583        C825   1.456       .  S
C584       C1755   1.498       .  S
H585        O586   0.965       .  S
H587        O588   0.966       .  S
C589        N590   1.352       .  A
C589        N594   1.357       .  A
C589       C1122   1.456       .  S
N590        C591   1.349       .  A
C591        N592   1.347       .  A
C591        C885   1.448       .  S
N592        C593   1.351       .  A
C593        N594   1.358       .  A
C593        C752   1.464       .  S
C595        N596   1.361       .  A
C595        N600   1.363       .  A
C595       C1132   1.486       .  S
N596        C597   1.361       .  A
C597        N598   1.358       .  A
C597        C742   1.502       .  S
N598        C599   1.356       .  A
C599        N600   1.363       .  A
C599        C785   1.483       .  S
C601        N602   1.357       .  A
C601        N606   1.352       .  A
C601        C732   1.463       .  S
N602        C603   1.357       .  A
C603        N604   1.352       .  A
C603        C765   1.460       .  S
N604        C605   1.350       .  A
C605        N606   1.350       .  A
C605       C1195   1.448       .  S
C607        N608   1.362       .  A
C607        N612   1.360       .  A
C607        C772   1.488       .  S
N608        C609   1.361       .  A
C609        N610   1.358       .  A
C609        C905   1.479       .  S
N610        C611   1.359       .  A
C611        N612   1.359       .  A
C611        C725   1.483       .  S
O613       Zr649   2.406       .  S
O613        C624   1.285       .  A
O614       Zr648   2.451       .  S
O614        C625   1.293       .  A
O615       Zr621   2.410       .  S
O615        C626   1.287       .  A
O616       Zr621   2.421       .  S
O616        C627   1.287       .  A
O617       Zr651   2.459       .  S
O617        C627   1.295       .  A
O618       Zr650   2.421       .  S
O618        C626   1.288       .  A
O619       Zr621   2.465       .  S
O619        C625   1.297       .  A
O620       Zr621   2.488       .  S
O620        C624   1.302       .  A
Zr621       O622   2.335       .  S
Zr621       O623   2.332       .  S
Zr621       O631   2.349       .  S
Zr621       O629   2.347       .  S
O622       Zr648   2.339       .  S
O622       Zr651   2.329       .  S
O623       Zr649   2.346       .  S
O623       Zr650   2.335       .  S
C624       C1852   1.478       .  S
C625       C1485   1.514       .  S
C626       C1515   1.466       .  S
C627        C832   1.475       .  S
H628        O629   0.966       .  S
O629       Zr648   2.337       .  S
O629       Zr650   2.339       .  S
H630        O631   0.968       .  S
O631       Zr649   2.354       .  S
O631       Zr651   2.334       .  S
O632       Zr648   2.433       .  S
O632        C655   1.291       .  A
O633       Zr649   2.451       .  S
O633        C656   1.292       .  A
O634       Zr650   2.422       .  S
O634        C657   1.288       .  A
O635       Zr651   2.411       .  S
O635        C658   1.285       .  A
O636       Zr651   2.437       .  S
O636        C659   1.291       .  A
O637       Zr650   2.408       .  S
O637        C660   1.286       .  A
O638       Zr652   2.461       .  S
O638        C661   1.296       .  A
O639       Zr652   2.427       .  S
O639        C662   1.291       .  A
O640       Zr650   2.445       .  S
O640        C661   1.293       .  A
O641       Zr651   2.416       .  S
O641        C662   1.288       .  A
O642       Zr648   2.464       .  S
O642        C657   1.297       .  A
O643       Zr649   2.439       .  S
O643        C660   1.293       .  A
O644       Zr649   2.477       .  S
O644        C659   1.299       .  A
O645       Zr648   2.464       .  S
O645        C658   1.297       .  A
O646       Zr652   2.433       .  S
O646        C655   1.291       .  A
O647       Zr652   2.441       .  S
O647        C656   1.292       .  A
Zr648       O654   2.355       .  S
Zr648       O666   2.341       .  S
Zr649       O653   2.326       .  S
Zr649       O664   2.341       .  S
Zr650       O654   2.333       .  S
Zr650       O664   2.339       .  S
Zr651       O653   2.342       .  S
Zr651       O666   2.345       .  S
Zr652       O653   2.347       .  S
Zr652       O654   2.343       .  S
Zr652       O666   2.347       .  S
Zr652       O664   2.329       .  S
C655        C735   1.465       .  S
C656        C745   1.510       .  S
C657        C722   1.483       .  S
C658        C855   1.492       .  S
C659       C1825   1.495       .  S
C660       C1585   1.469       .  S
C661       C1565   1.495       .  S
C662        C755   1.459       .  S
H663        O664   0.966       .  S
H665        O666   0.966       .  S
O667       Zr703   2.416       .  S
O667        C678   1.289       .  A
O668       Zr702   2.477       .  S
O668        C679   1.299       .  A
O669       Zr675   2.408       .  S
O669        C680   1.286       .  A
O670       Zr675   2.484       .  S
O670        C681   1.300       .  A
O671       Zr705   2.423       .  S
O671        C681   1.287       .  A
O672       Zr704   2.438       .  S
O672        C680   1.292       .  A
O673       Zr675   2.441       .  S
O673        C679   1.292       .  A
O674       Zr675   2.410       .  S
O674        C678   1.287       .  A
Zr675       O676   2.314       .  S
Zr675       O677   2.351       .  S
Zr675       O685   2.341       .  S
Zr675       O683   2.351       .  S
O676       Zr702   2.343       .  S
O676       Zr705   2.346       .  S
O677       Zr703   2.339       .  S
O677       Zr704   2.339       .  S
C678       C1622   1.462       .  S
C679       C1322   1.507       .  S
C680       C1342   1.454       .  S
C681       C1285   1.488       .  S
H682        O683   0.966       .  S
O683       Zr702   2.313       .  S
O683       Zr704   2.350       .  S
H684        O685   0.966       .  S
O685       Zr703   2.362       .  S
O685       Zr705   2.322       .  S
O686       Zr702   2.418       .  S
O686        C709   1.289       .  A
O687       Zr703   2.473       .  S
O687        C710   1.298       .  A
O688       Zr704   2.443       .  S
O688        C711   1.291       .  A
O689       Zr705   2.432       .  S
O689        C712   1.291       .  A
O690       Zr705   2.479       .  S
O690        C713   1.299       .  A
O691       Zr704   2.420       .  S
O691        C714   1.287       .  A
O692       Zr706   2.454       .  S
O692        C715   1.295       .  A
O693       Zr706   2.423       .  S
O693        C716   1.290       .  A
O694       Zr704   2.453       .  S
O694        C715   1.294       .  A
O695       Zr705   2.392       .  S
O695        C716   1.281       .  A
O696       Zr702   2.466       .  S
O696        C711   1.296       .  A
O697       Zr703   2.438       .  S
O697        C714   1.291       .  A
O698       Zr703   2.431       .  S
O698        C713   1.290       .  A
O699       Zr702   2.422       .  S
O699        C712   1.289       .  A
O700       Zr706   2.413       .  S
O700        C709   1.287       .  A
O701       Zr706   2.438       .  S
O701        C710   1.291       .  A
Zr702       O708   2.343       .  S
Zr702       O720   2.350       .  S
Zr703       O707   2.329       .  S
Zr703       O718   2.339       .  S
Zr704       O708   2.317       .  S
Zr704       O718   2.347       .  S
Zr705       O707   2.342       .  S
Zr705       O720   2.347       .  S
Zr706       O707   2.340       .  S
Zr706       O708   2.338       .  S
Zr706       O720   2.342       .  S
Zr706       O718   2.329       .  S
C709       C1215   1.456       .  S
C710        C795   1.491       .  S
C711       C1185   1.514       .  S
C712       C1312   1.475       .  S
C713       C1605   1.488       .  S
C714       C1545   1.492       .  S
C715       C1522   1.497       .  S
C716        C812   1.465       .  S
H717        O718   0.966       .  S
H719        O720   0.965       .  S
C721        C722   1.409       .  A
C721        C726   1.410       .  A
C721       Br728   1.924       .  S
C722        C723   1.412       .  A
C723        C724   1.407       .  A
C723       Br730   1.933       .  S
C724        C725   1.413       .  A
C724       Br729   1.932       .  S
C725        C726   1.412       .  A
C726       Br727   1.930       .  S
C731        C732   1.408       .  A
C731        C736   1.401       .  A
C731       Br738   1.933       .  S
C732        C733   1.409       .  A
C733        C734   1.402       .  A
C733       Br740   1.931       .  S
C734        C735   1.406       .  A
C734       Br739   1.923       .  S
C735        C736   1.406       .  A
C736       Br737   1.920       .  S
C741        C742   1.419       .  A
C741        C746   1.417       .  A
C741       Br748   1.938       .  S
C742        C743   1.418       .  A
C743        C744   1.408       .  A
C743       Br750   1.939       .  S
C744        C745   1.420       .  A
C744       Br749   1.939       .  S
C745        C746   1.423       .  A
C746       Br747   1.938       .  S
C751        C752   1.413       .  A
C751        C756   1.400       .  A
C751       Br758   1.936       .  S
C752        C753   1.411       .  A
C753        C754   1.400       .  A
C753       Br760   1.933       .  S
C754        C755   1.407       .  A
C754       Br759   1.931       .  S
C755        C756   1.408       .  A
C756       Br757   1.933       .  S
C761        C762   1.413       .  A
C761        C766   1.401       .  A
C761       Br768   1.936       .  S
C762        C763   1.417       .  A
C763        C764   1.403       .  A
C763       Br770   1.929       .  S
C764        C765   1.402       .  A
C764       Br769   1.933       .  S
C765        C766   1.408       .  A
C766       Br767   1.933       .  S
C771        C772   1.413       .  A
C771        C776   1.412       .  A
C771       Br778   1.930       .  S
C772        C773   1.414       .  A
C773        C774   1.410       .  A
C773       Br780   1.935       .  S
C774        C775   1.414       .  A
C774       Br779   1.930       .  S
C775        C776   1.411       .  A
C776       Br777   1.930       .  S
C781        C782   1.410       .  A
C781        C786   1.410   1_554  A
C781       Br788   1.930       .  S
C782        C783   1.409       .  A
C783        C784   1.411   1_554  A
C783       Br790   1.927       .  S
C784        C785   1.411       .  A
C784       Br789   1.929       .  S
C785        C786   1.411       .  A
C786       Br787   1.930       .  S
C791        C792   1.411       .  A
C791        C796   1.417       .  A
C791       Br798   1.926       .  S
C792        C793   1.406       .  A
C793        C794   1.405       .  A
C793       Br800   1.927       .  S
C794        C795   1.411       .  A
C794       Br799   1.922       .  S
C795        C796   1.413       .  A
C796       Br797   1.921       .  S
C801        C802   1.416       .  A
C801        C806   1.413       .  A
C801       Br808   1.931       .  S
C802        C803   1.419       .  A
C803        C804   1.420       .  A
C803       Br810   1.929       .  S
C804        C805   1.415       .  A
C804       Br809   1.932       .  S
C805        C806   1.419       .  A
C806       Br807   1.932       .  S
C811        C812   1.414       .  A
C811        C816   1.395       .  A
C811       Br818   1.935       .  S
C812        C813   1.411       .  A
C813        C814   1.398       .  A
C813       Br820   1.933       .  S
C814        C815   1.405       .  A
C814       Br819   1.931       .  S
C815        C816   1.406       .  A
C816       Br817   1.936       .  S
C821        C822   1.402       .  A
C821        C826   1.399       .  A
C821       Br828   1.930       .  S
C822        C823   1.405       .  A
C823        C824   1.401       .  A
C823       Br830   1.931       .  S
C824        C825   1.409       .  A
C824       Br829   1.930       .  S
C825        C826   1.409       .  A
C826       Br827   1.933       .  S
C831        C832   1.406       .  A
C831        C836   1.403       .  A
C831       Br838   1.915       .  S
C832        C833   1.410       .  A
C833        C834   1.408       .  A
C833       Br840   1.934       .  S
C834        C835   1.410       .  A
C834       Br839   1.924       .  S
C835        C836   1.406       .  A
C836       Br837   1.931       .  S
C841        C842   1.414       .  A
C841        C846   1.412       .  A
C841       Br848   1.930       .  S
C842        C843   1.409       .  A
C843        C844   1.402       .  A
C843       Br850   1.929       .  S
C844        C845   1.412       .  A
C844       Br849   1.927       .  S
C845        C846   1.411       .  A
C846       Br847   1.931       .  S
C851        C852   1.419       .  A
C851        C856   1.406       .  A
C851       Br858   1.945       .  S
C852        C853   1.421       .  A
C853        C854   1.409       .  A
C853       Br860   1.941       .  S
C854        C855   1.414       .  A
C854       Br859   1.936       .  S
C855        C856   1.422       .  A
C856       Br857   1.941       .  S
C861        C862   1.401       .  A
C861        C866   1.399       .  A
C861       Br868   1.932       .  S
C862        C863   1.410       .  A
C863        C864   1.400       .  A
C863       Br870   1.934       .  S
C864        C865   1.410       .  A
C864       Br869   1.936       .  S
C865        C866   1.414       .  A
C866       Br867   1.926       .  S
C871        C872   1.414       .  A
C871        C876   1.416       .  A
C871       Br878   1.925       .  S
C872        C873   1.407       .  A
C873        C874   1.403       .  A
C873       Br880   1.927       .  S
C874        C875   1.408       .  A
C874       Br879   1.916       .  S
C875        C876   1.409       .  A
C876       Br877   1.927       .  S
C881        C882   1.407       .  A
C881        C886   1.399       .  A
C881       Br888   1.927       .  S
C882        C883   1.407       .  A
C883        C884   1.399       .  A
C883       Br890   1.930       .  S
C884        C885   1.404       .  A
C884       Br889   1.931       .  S
C885        C886   1.404       .  A
C886       Br887   1.933       .  S
C891        C892   1.408       .  A
C891        C896   1.401       .  A
C891       Br898   1.928       .  S
C892        C893   1.408       .  A
C893        C894   1.403       .  A
C893       Br900   1.931       .  S
C894        C895   1.417       .  A
C894       Br899   1.939       .  S
C895        C896   1.411       .  A
C896       Br897   1.934       .  S
C901        C902   1.409       .  A
C901        C906   1.409       .  A
C901       Br908   1.927       .  S
C902        C903   1.410       .  A
C903        C904   1.412       .  A
C903       Br910   1.928       .  S
C904        C905   1.410   1_565  A
C904       Br909   1.928   1_565  S
C905        C906   1.409   1_545  A
C906       Br907   1.931   1_565  S
C911        C912   1.416       .  A
C911        C916   1.408       .  A
C911       Br918   1.925       .  S
C912        C913   1.413       .  A
C913        C914   1.412       .  A
C913       Br920   1.931       .  S
C914        C915   1.412       .  A
C914       Br919   1.930       .  S
C915        C916   1.411       .  A
C916       Br917   1.936       .  S
C921        C922   1.402       .  A
C921        C926   1.395       .  A
C921       Br928   1.929       .  S
C922        C923   1.405       .  A
C923        C924   1.400       .  A
C923       Br930   1.932       .  S
C924        C925   1.411       .  A
C924       Br929   1.933       .  S
C925        C926   1.408       .  A
C926       Br927   1.926       .  S
C931        C932   1.416       .  A
C931        C936   1.402       .  A
C931       Br938   1.938       .  S
C932        C933   1.419       .  A
C933        C934   1.404       .  A
C933       Br940   1.937       .  S
C934        C935   1.406       .  A
C934       Br939   1.932       .  S
C935        C936   1.407       .  A
C936       Br937   1.929       .  S
C941        C942   1.407       .  A
C941        C946   1.406       .  A
C941       Br948   1.929       .  S
C942        C943   1.412       .  A
C943        C944   1.415       .  A
C943       Br950   1.931       .  S
C944        C945   1.412       .  A
C944       Br949   1.927       .  S
C945        C946   1.409       .  A
C946       Br947   1.928       .  S
C951        C952   1.410       .  A
C951        C956   1.408   1_554  A
C951       Br958   1.931       .  S
C952        C953   1.410       .  A
C953        C954   1.411   1_554  A
C953       Br960   1.929       .  S
C954        C955   1.410       .  A
C954       Br959   1.927       .  S
C955        C956   1.410       .  A
C956       Br957   1.931       .  S
C961        C962   1.411       .  A
C961        C966   1.408       .  A
C961       Br968   1.930       .  S
C962        C963   1.413       .  A
C963        C964   1.411       .  A
C963       Br970   1.928       .  S
C964        C965   1.407       .  A
C964       Br969   1.922       .  S
C965        C966   1.411       .  A
C966       Br967   1.927       .  S
C971        C972   1.404       .  A
C971        C976   1.400       .  A
C971       Br978   1.931       .  S
C972        C973   1.404       .  A
C973        C974   1.396       .  A
C973       Br980   1.931       .  S
C974        C975   1.404       .  A
C974       Br979   1.930       .  S
C975        C976   1.407       .  A
C976       Br977   1.928       .  S
C981        C982   1.414       .  A
C981        C986   1.406       .  A
C981       Br988   1.935       .  S
C982        C983   1.408       .  A
C983        C984   1.410       .  A
C983       Br990   1.933       .  S
C984        C985   1.420       .  A
C984       Br989   1.933       .  S
C985        C986   1.418       .  A
C986       Br987   1.936       .  S
C991        C992   1.418       .  A
C991        C996   1.417       .  A
C991       Br998   1.932       .  S
C992        C993   1.416       .  A
C993        C994   1.410       .  A
C993      Br1000   1.937       .  S
C994        C995   1.417       .  A
C994       Br999   1.935       .  S
C995        C996   1.417       .  A
C996       Br997   1.934       .  S
C1001      C1002   1.405       .  A
C1001      C1006   1.403       .  A
C1001     Br1008   1.941       .  S
C1002      C1003   1.416       .  A
C1003      C1004   1.414       .  A
C1003     Br1010   1.930       .  S
C1004      C1005   1.411       .  A
C1004     Br1009   1.931       .  S
C1005      C1006   1.417       .  A
C1006     Br1007   1.914       .  S
C1011      C1012   1.406       .  A
C1011      C1016   1.396       .  A
C1011     Br1018   1.930       .  S
C1012      C1013   1.406       .  A
C1013      C1014   1.397       .  A
C1013     Br1020   1.927       .  S
C1014      C1015   1.406       .  A
C1014     Br1019   1.934       .  S
C1015      C1016   1.404       .  A
C1016     Br1017   1.931       .  S
C1021      C1022   1.405       .  A
C1021      C1026   1.395       .  A
C1021     Br1028   1.926       .  S
C1022      C1023   1.405       .  A
C1023      C1024   1.398       .  A
C1023     Br1030   1.932       .  S
C1024      C1025   1.405       .  A
C1024     Br1029   1.925       .  S
C1025      C1026   1.402       .  A
C1026     Br1027   1.932       .  S
C1031      C1032   1.401       .  A
C1031      C1036   1.399       .  A
C1031     Br1038   1.931       .  S
C1032      C1033   1.402       .  A
C1033      C1034   1.397       .  A
C1033     Br1040   1.934       .  S
C1034      C1035   1.411       .  A
C1034     Br1039   1.927       .  S
C1035      C1036   1.415       .  A
C1036     Br1037   1.932       .  S
C1041      C1042   1.409       .  A
C1041      C1046   1.400       .  A
C1041     Br1048   1.929       .  S
C1042      C1043   1.409       .  A
C1043      C1044   1.401       .  A
C1043     Br1050   1.930       .  S
C1044      C1045   1.405       .  A
C1044     Br1049   1.931       .  S
C1045      C1046   1.405       .  A
C1046     Br1047   1.927       .  S
C1051      C1052   1.412       .  A
C1051      C1056   1.418       .  A
C1051     Br1058   1.932       .  S
C1052      C1053   1.414       .  A
C1053      C1054   1.409       .  A
C1053     Br1060   1.929       .  S
C1054      C1055   1.415       .  A
C1054     Br1059   1.926       .  S
C1055      C1056   1.420       .  A
C1056     Br1057   1.927       .  S
C1061      C1062   1.410       .  A
C1061      C1066   1.404       .  A
C1061     Br1068   1.931       .  S
C1062      C1063   1.408       .  A
C1063      C1064   1.409       .  A
C1063     Br1070   1.926       .  S
C1064      C1065   1.408   1_455  A
C1064     Br1069   1.928   1_455  S
C1065      C1066   1.406   1_655  A
C1066     Br1067   1.931   1_455  S
C1071      C1072   1.408       .  A
C1071      C1076   1.405       .  A
C1071     Br1078   1.934       .  S
C1072      C1073   1.414       .  A
C1073      C1074   1.412       .  A
C1073     Br1080   1.930       .  S
C1074      C1075   1.409       .  A
C1074     Br1079   1.926       .  S
C1075      C1076   1.409       .  A
C1076     Br1077   1.919       .  S
C1081      C1082   1.404       .  A
C1081      C1086   1.404       .  A
C1081     Br1088   1.935       .  S
C1082      C1083   1.406       .  A
C1083      C1084   1.402       .  A
C1083     Br1090   1.933       .  S
C1084      C1085   1.416       .  A
C1084     Br1089   1.936       .  S
C1085      C1086   1.418       .  A
C1086     Br1087   1.930       .  S
C1091      C1092   1.417       .  A
C1091      C1096   1.415       .  A
C1091     Br1098   1.927       .  S
C1092      C1093   1.408       .  A
C1093      C1094   1.405       .  A
C1093     Br1100   1.935       .  S
C1094      C1095   1.411       .  A
C1094     Br1099   1.912       .  S
C1095      C1096   1.410       .  A
C1096     Br1097   1.930       .  S
C1101      C1102   1.404       .  A
C1101      C1106   1.397       .  A
C1101     Br1108   1.932       .  S
C1102      C1103   1.406       .  A
C1103      C1104   1.398       .  A
C1103     Br1110   1.931       .  S
C1104      C1105   1.405       .  A
C1104     Br1109   1.928       .  S
C1105      C1106   1.407       .  A
C1106     Br1107   1.931       .  S
C1111      C1112   1.416       .  A
C1111      C1116   1.402       .  A
C1111     Br1118   1.929       .  S
C1112      C1113   1.413       .  A
C1113      C1114   1.402       .  A
C1113     Br1120   1.937       .  S
C1114      C1115   1.409       .  A
C1114     Br1119   1.934       .  S
C1115      C1116   1.402       .  A
C1116     Br1117   1.931       .  S
C1121      C1122   1.407       .  A
C1121      C1126   1.401       .  A
C1121     Br1128   1.934       .  S
C1122      C1123   1.403       .  A
C1123      C1124   1.401       .  A
C1123     Br1130   1.931       .  S
C1124      C1125   1.411       .  A
C1124     Br1129   1.925       .  S
C1125      C1126   1.414       .  A
C1126     Br1127   1.936       .  S
C1131      C1132   1.412       .  A
C1131      C1136   1.417       .  A
C1131     Br1138   1.930       .  S
C1132      C1133   1.407       .  A
C1133      C1134   1.409       .  A
C1133     Br1140   1.931       .  S
C1134      C1135   1.413       .  A
C1134     Br1139   1.920       .  S
C1135      C1136   1.412       .  A
C1136     Br1137   1.921       .  S
C1141      C1142   1.405       .  A
C1141      C1146   1.398       .  A
C1141     Br1148   1.927       .  S
C1142      C1143   1.404       .  A
C1143      C1144   1.401       .  A
C1143     Br1150   1.922       .  S
C1144      C1145   1.409       .  A
C1144     Br1149   1.931       .  S
C1145      C1146   1.407       .  A
C1146     Br1147   1.931       .  S
C1151      C1152   1.425       .  A
C1151      C1156   1.415       .  A
C1151     Br1158   1.938       .  S
C1152      C1153   1.421       .  A
C1153      C1154   1.414       .  A
C1153     Br1160   1.937       .  S
C1154      C1155   1.417       .  A
C1154     Br1159   1.939       .  S
C1155      C1156   1.417       .  A
C1156     Br1157   1.939       .  S
C1161      C1162   1.411   1_565  A
C1161      C1166   1.407       .  A
C1161     Br1168   1.927   1_565  S
C1162      C1163   1.408   1_545  A
C1163      C1164   1.408       .  A
C1163     Br1170   1.930   1_565  S
C1164      C1165   1.407       .  A
C1164     Br1169   1.927       .  S
C1165      C1166   1.407       .  A
C1166     Br1167   1.932       .  S
C1171      C1172   1.418       .  A
C1171      C1176   1.406       .  A
C1171     Br1178   1.935       .  S
C1172      C1173   1.415       .  A
C1173      C1174   1.416       .  A
C1173     Br1180   1.930       .  S
C1174      C1175   1.416       .  A
C1174     Br1179   1.933       .  S
C1175      C1176   1.410       .  A
C1176     Br1177   1.932       .  S
C1181      C1182   1.421       .  A
C1181      C1186   1.419       .  A
C1181     Br1188   1.938       .  S
C1182      C1183   1.417       .  A
C1183      C1184   1.416       .  A
C1183     Br1190   1.938       .  S
C1184      C1185   1.421       .  A
C1184     Br1189   1.934       .  S
C1185      C1186   1.424       .  A
C1186     Br1187   1.939       .  S
C1191      C1192   1.408       .  A
C1191      C1196   1.401       .  A
C1191     Br1198   1.929       .  S
C1192      C1193   1.405       .  A
C1193      C1194   1.395       .  A
C1193     Br1200   1.931       .  S
C1194      C1195   1.406       .  A
C1194     Br1199   1.933       .  S
C1195      C1196   1.404       .  A
C1196     Br1197   1.930       .  S
C1201      C1202   1.403       .  A
C1201      C1206   1.399       .  A
C1201     Br1208   1.931       .  S
C1202      C1203   1.410       .  A
C1203      C1204   1.403       .  A
C1203     Br1210   1.941       .  S
C1204      C1205   1.427       .  A
C1204     Br1209   1.946       .  S
C1205      C1206   1.425       .  A
C1206     Br1207   1.943       .  S
C1211      C1212   1.400       .  A
C1211      C1216   1.397       .  A
C1211     Br1218   1.933       .  S
C1212      C1213   1.403       .  A
C1213      C1214   1.398       .  A
C1213     Br1220   1.932       .  S
C1214      C1215   1.410       .  A
C1214     Br1219   1.932       .  S
C1215      C1216   1.412       .  A
C1216     Br1217   1.929       .  S
C1221      C1222   1.419       .  A
C1221      C1226   1.407       .  A
C1221     Br1228   1.937       .  S
C1222      C1223   1.413       .  A
C1223      C1224   1.405       .  A
C1223     Br1230   1.940       .  S
C1224      C1225   1.418       .  A
C1224     Br1229   1.931       .  S
C1225      C1226   1.411       .  A
C1226     Br1227   1.933       .  S
C1231      C1232   1.410       .  A
C1231      C1236   1.408       .  A
C1231     Br1238   1.928       .  S
C1232      C1233   1.409       .  A
C1233      C1234   1.411       .  A
C1233     Br1240   1.928       .  S
C1234      C1235   1.408       .  A
C1234     Br1239   1.926       .  S
C1235      C1236   1.410       .  A
C1236     Br1237   1.934       .  S
C1241      C1242   1.413       .  A
C1241      C1246   1.408       .  A
C1241     Br1248   1.929       .  S
C1242      C1243   1.417       .  A
C1243      C1244   1.399       .  A
C1243     Br1250   1.932       .  S
C1244      C1245   1.410       .  A
C1244     Br1249   1.939       .  S
C1245      C1246   1.416       .  A
C1246     Br1247   1.937       .  S
C1251      C1252   1.410       .  A
C1251      C1256   1.408       .  A
C1251     Br1258   1.927       .  S
C1252      C1253   1.409       .  A
C1253      C1254   1.412       .  A
C1253     Br1260   1.929       .  S
C1254      C1255   1.410       .  A
C1254     Br1259   1.925       .  S
C1255      C1256   1.410       .  A
C1256     Br1257   1.934       .  S
C1261      C1262   1.410       .  A
C1261      C1266   1.407       .  A
C1261     Br1268   1.928       .  S
C1262      C1263   1.410       .  A
C1263      C1264   1.409       .  A
C1263     Br1270   1.930       .  S
C1264      C1265   1.412   1_455  A
C1264     Br1269   1.931   1_455  S
C1265      C1266   1.407   1_655  A
C1266     Br1267   1.931   1_455  S
C1271      C1272   1.410       .  A
C1271      C1276   1.410       .  A
C1271     Br1278   1.919       .  S
C1272      C1273   1.413       .  A
C1273      C1274   1.408       .  A
C1273     Br1280   1.931       .  S
C1274      C1275   1.408       .  A
C1274     Br1279   1.931       .  S
C1275      C1276   1.407       .  A
C1276     Br1277   1.930       .  S
C1281      C1282   1.406       .  A
C1281      C1286   1.408       .  A
C1281     Br1288   1.931       .  S
C1282      C1283   1.409       .  A
C1283      C1284   1.414       .  A
C1283     Br1290   1.928       .  S
C1284      C1285   1.411       .  A
C1284     Br1289   1.921       .  S
C1285      C1286   1.410       .  A
C1286     Br1287   1.922       .  S
C1291      C1292   1.404       .  A
C1291      C1296   1.398       .  A
C1291     Br1298   1.931       .  S
C1292      C1293   1.402       .  A
C1293      C1294   1.395       .  A
C1293     Br1300   1.932       .  S
C1294      C1295   1.405       .  A
C1294     Br1299   1.928       .  S
C1295      C1296   1.406       .  A
C1296     Br1297   1.928       .  S
C1301      C1302   1.418       .  A
C1301      C1306   1.402       .  A
C1301     Br1308   1.937       .  S
C1302      C1303   1.414       .  A
C1303      C1304   1.395       .  A
C1303     Br1310   1.941       .  S
C1304      C1305   1.412       .  A
C1304     Br1309   1.934       .  S
C1305      C1306   1.407       .  A
C1306     Br1307   1.932       .  S
C1311      C1312   1.415       .  A
C1311      C1316   1.401       .  A
C1311     Br1318   1.940       .  S
C1312      C1313   1.416       .  A
C1313      C1314   1.402       .  A
C1313     Br1320   1.928       .  S
C1314      C1315   1.404       .  A
C1314     Br1319   1.936       .  S
C1315      C1316   1.413       .  A
C1316     Br1317   1.938       .  S
C1321      C1322   1.417       .  A
C1321      C1326   1.415       .  A
C1321     Br1328   1.934       .  S
C1322      C1323   1.420       .  A
C1323      C1324   1.419       .  A
C1323     Br1330   1.933       .  S
C1324      C1325   1.416       .  A
C1324     Br1329   1.928       .  S
C1325      C1326   1.417       .  A
C1326     Br1327   1.931       .  S
C1331      C1332   1.416       .  A
C1331      C1336   1.417       .  A
C1331     Br1338   1.931       .  S
C1332      C1333   1.415       .  A
C1333      C1334   1.410       .  A
C1333     Br1340   1.934       .  S
C1334      C1335   1.412       .  A
C1334     Br1339   1.928       .  S
C1335      C1336   1.413       .  A
C1336     Br1337   1.926       .  S
C1341      C1342   1.406       .  A
C1341      C1346   1.399       .  A
C1341     Br1348   1.927       .  S
C1342      C1343   1.407       .  A
C1343      C1344   1.400       .  A
C1343     Br1350   1.931       .  S
C1344      C1345   1.405       .  A
C1344     Br1349   1.930       .  S
C1345      C1346   1.404       .  A
C1346     Br1347   1.930       .  S
C1351      C1352   1.412       .  A
C1351      C1356   1.404       .  A
C1351     Br1358   1.932       .  S
C1352      C1353   1.408       .  A
C1353      C1354   1.401       .  A
C1353     Br1360   1.934       .  S
C1354      C1355   1.408       .  A
C1354     Br1359   1.918       .  S
C1355      C1356   1.406       .  A
C1356     Br1357   1.926       .  S
C1361      C1362   1.415       .  A
C1361      C1366   1.412       .  A
C1361     Br1368   1.928       .  S
C1362      C1363   1.418       .  A
C1363      C1364   1.412       .  A
C1363     Br1370   1.928       .  S
C1364      C1365   1.413       .  A
C1364     Br1369   1.935   1_655  S
C1365      C1366   1.414       .  A
C1366     Br1367   1.935       .  S
C1371      C1372   1.423       .  A
C1371      C1376   1.414       .  A
C1371     Br1378   1.942       .  S
C1372      C1373   1.416       .  A
C1373      C1374   1.412       .  A
C1373     Br1380   1.941       .  S
C1374      C1375   1.425       .  A
C1374     Br1379   1.942       .  S
C1375      C1376   1.423       .  A
C1376     Br1377   1.943       .  S
C1381      C1382   1.404   1_565  A
C1381      C1386   1.400       .  A
C1381     Br1388   1.931   1_565  S
C1382      C1383   1.405   1_545  A
C1383      C1384   1.396       .  A
C1383     Br1390   1.929   1_565  S
C1384      C1385   1.403       .  A
C1384     Br1389   1.931       .  S
C1385      C1386   1.407       .  A
C1386     Br1387   1.929       .  S
C1391      C1392   1.406       .  A
C1391      C1396   1.399       .  A
C1391     Br1398   1.932       .  S
C1392      C1393   1.404       .  A
C1393      C1394   1.405       .  A
C1393     Br1400   1.930       .  S
C1394      C1395   1.414       .  A
C1394     Br1399   1.928       .  S
C1395      C1396   1.408       .  A
C1396     Br1397   1.929       .  S
C1401      C1402   1.408       .  A
C1401      C1406   1.401       .  A
C1401     Br1408   1.929       .  S
C1402      C1403   1.408       .  A
C1403      C1404   1.400       .  A
C1403     Br1410   1.930       .  S
C1404      C1405   1.409       .  A
C1404     Br1409   1.933       .  S
C1405      C1406   1.408       .  A
C1406     Br1407   1.932       .  S
C1411      C1412   1.409       .  A
C1411      C1416   1.404       .  A
C1411     Br1418   1.927       .  S
C1412      C1413   1.409       .  A
C1413      C1414   1.410       .  A
C1413     Br1420   1.928       .  S
C1414      C1415   1.408       .  A
C1414     Br1419   1.927       .  S
C1415      C1416   1.407       .  A
C1416     Br1417   1.932       .  S
C1421      C1422   1.416       .  A
C1421      C1426   1.412       .  A
C1421     Br1428   1.933       .  S
C1422      C1423   1.413       .  A
C1423      C1424   1.413       .  A
C1423     Br1430   1.928       .  S
C1424      C1425   1.417       .  A
C1424     Br1429   1.934       .  S
C1425      C1426   1.416       .  A
C1426     Br1427   1.936       .  S
C1431      C1432   1.412       .  A
C1431      C1436   1.410       .  A
C1431     Br1438   1.929       .  S
C1432      C1433   1.411       .  A
C1433      C1434   1.413       .  A
C1433     Br1440   1.926       .  S
C1434      C1435   1.411       .  A
C1434     Br1439   1.929       .  S
C1435      C1436   1.411       .  A
C1436     Br1437   1.928       .  S
C1441      C1442   1.409       .  A
C1441      C1446   1.402       .  A
C1441     Br1448   1.932       .  S
C1442      C1443   1.409       .  A
C1443      C1444   1.401       .  A
C1443     Br1450   1.930       .  S
C1444      C1445   1.406       .  A
C1444     Br1449   1.927       .  S
C1445      C1446   1.406       .  A
C1446     Br1447   1.922       .  S
C1451      C1452   1.425       .  A
C1451      C1456   1.408       .  A
C1451     Br1458   1.940       .  S
C1452      C1453   1.420       .  A
C1453      C1454   1.401       .  A
C1453     Br1460   1.935   1_655  S
C1454      C1455   1.409       .  A
C1454     Br1459   1.934       .  S
C1455      C1456   1.407       .  A
C1456     Br1457   1.934       .  S
C1461      C1462   1.407       .  A
C1461      C1466   1.409       .  A
C1461     Br1468   1.932       .  S
C1462      C1463   1.412       .  A
C1463      C1464   1.416       .  A
C1463     Br1470   1.927       .  S
C1464      C1465   1.412       .  A
C1464     Br1469   1.928       .  S
C1465      C1466   1.412       .  A
C1466     Br1467   1.925       .  S
C1471      C1472   1.416       .  A
C1471      C1476   1.416       .  A
C1471     Br1478   1.936       .  S
C1472      C1473   1.416       .  A
C1473      C1474   1.412       .  A
C1473     Br1480   1.933       .  S
C1474      C1475   1.412       .  A
C1474     Br1479   1.928       .  S
C1475      C1476   1.418       .  A
C1476     Br1477   1.925       .  S
C1481      C1482   1.416       .  A
C1481      C1486   1.411       .  A
C1481     Br1488   1.935       .  S
C1482      C1483   1.415       .  A
C1483      C1484   1.417       .  A
C1483     Br1490   1.935       .  S
C1484      C1485   1.422       .  A
C1484     Br1489   1.933       .  S
C1485      C1486   1.420       .  A
C1486     Br1487   1.936       .  S
C1491      C1492   1.405   1_565  A
C1491      C1496   1.399       .  A
C1491     Br1498   1.931   1_565  S
C1492      C1493   1.404   1_545  A
C1493      C1494   1.397       .  A
C1493     Br1500   1.929   1_565  S
C1494      C1495   1.404       .  A
C1494     Br1499   1.931       .  S
C1495      C1496   1.405       .  A
C1496     Br1497   1.929       .  S
C1501      C1502   1.402       .  A
C1501      C1506   1.398       .  A
C1501     Br1508   1.932       .  S
C1502      C1503   1.404       .  A
C1503      C1504   1.399       .  A
C1503     Br1510   1.927       .  S
C1504      C1505   1.410       .  A
C1504     Br1509   1.934       .  S
C1505      C1506   1.411       .  A
C1506     Br1507   1.931       .  S
C1511      C1512   1.407       .  A
C1511      C1516   1.403       .  A
C1511     Br1518   1.932       .  S
C1512      C1513   1.404       .  A
C1513      C1514   1.396       .  A
C1513     Br1520   1.931       .  S
C1514      C1515   1.412       .  A
C1514     Br1519   1.934       .  S
C1515      C1516   1.414       .  A
C1516     Br1517   1.933       .  S
C1521      C1522   1.415       .  A
C1521      C1526   1.416       .  A
C1521     Br1528   1.930       .  S
C1522      C1523   1.414       .  A
C1523      C1524   1.410       .  A
C1523     Br1530   1.924       .  S
C1524      C1525   1.410       .  A
C1524     Br1529   1.929       .  S
C1525      C1526   1.413       .  A
C1526     Br1527   1.926       .  S
C1531      C1532   1.419       .  A
C1531      C1536   1.416       .  A
C1531     Br1538   1.931       .  S
C1532      C1533   1.421       .  A
C1533      C1534   1.416       .  A
C1533     Br1540   1.936       .  S
C1534      C1535   1.422       .  A
C1534     Br1539   1.941       .  S
C1535      C1536   1.423       .  A
C1536     Br1537   1.941       .  S
C1541      C1542   1.412       .  A
C1541      C1546   1.405       .  A
C1541     Br1548   1.941       .  S
C1542      C1543   1.402       .  A
C1543      C1544   1.404       .  A
C1543     Br1550   1.936       .  S
C1544      C1545   1.425       .  A
C1544     Br1549   1.936       .  S
C1545      C1546   1.421       .  A
C1546     Br1547   1.935       .  S
C1551      C1552   1.417       .  A
C1551      C1556   1.399       .  A
C1551     Br1558   1.938       .  S
C1552      C1553   1.416       .  A
C1553      C1554   1.404       .  A
C1553     Br1560   1.933       .  S
C1554      C1555   1.406       .  A
C1554     Br1559   1.932       .  S
C1555      C1556   1.405       .  A
C1556     Br1557   1.934       .  S
C1561      C1562   1.416       .  A
C1561      C1566   1.414       .  A
C1561     Br1568   1.931       .  S
C1562      C1563   1.414       .  A
C1563      C1564   1.411       .  A
C1563     Br1570   1.938       .  S
C1564      C1565   1.415       .  A
C1564     Br1569   1.927       .  S
C1565      C1566   1.413       .  A
C1566     Br1567   1.931       .  S
C1571      C1572   1.414       .  A
C1571      C1576   1.409       .  A
C1571     Br1578   1.936       .  S
C1572      C1573   1.412       .  A
C1573      C1574   1.412       .  A
C1573     Br1580   1.932       .  S
C1574      C1575   1.417       .  A
C1574     Br1579   1.933       .  S
C1575      C1576   1.416       .  A
C1576     Br1577   1.934       .  S
C1581      C1582   1.407       .  A
C1581      C1586   1.400       .  A
C1581     Br1588   1.928       .  S
C1582      C1583   1.402       .  A
C1583      C1584   1.403       .  A
C1583     Br1590   1.932       .  S
C1584      C1585   1.417       .  A
C1584     Br1589   1.931       .  S
C1585      C1586   1.411       .  A
C1586     Br1587   1.936       .  S
C1591      C1592   1.415       .  A
C1591      C1596   1.402       .  A
C1591     Br1598   1.934       .  S
C1592      C1593   1.414       .  A
C1593      C1594   1.400       .  A
C1593     Br1600   1.937       .  S
C1594      C1595   1.406       .  A
C1594     Br1599   1.931       .  S
C1595      C1596   1.406       .  A
C1596     Br1597   1.935       .  S
C1601      C1602   1.409       .  A
C1601      C1606   1.408       .  A
C1601     Br1608   1.931       .  S
C1602      C1603   1.408       .  A
C1603      C1604   1.411       .  A
C1603     Br1610   1.931       .  S
C1604      C1605   1.410       .  A
C1604     Br1609   1.909       .  S
C1605      C1606   1.411       .  A
C1606     Br1607   1.923       .  S
C1611      C1612   1.410       .  A
C1611      C1616   1.411       .  A
C1611     Br1618   1.931       .  S
C1612      C1613   1.408       .  A
C1613      C1614   1.411       .  A
C1613     Br1620   1.928       .  S
C1614      C1615   1.411       .  A
C1614     Br1619   1.926       .  S
C1615      C1616   1.412       .  A
C1616     Br1617   1.922       .  S
C1621      C1622   1.410       .  A
C1621      C1626   1.396       .  A
C1621     Br1628   1.929       .  S
C1622      C1623   1.413       .  A
C1623      C1624   1.398       .  A
C1623     Br1630   1.934       .  S
C1624      C1625   1.406       .  A
C1624     Br1629   1.932       .  S
C1625      C1626   1.404       .  A
C1626     Br1627   1.925       .  S
C1631      C1632   1.409       .  A
C1631      C1636   1.398       .  A
C1631     Br1638   1.934       .  S
C1632      C1633   1.413       .  A
C1633      C1634   1.398       .  A
C1633     Br1640   1.933       .  S
C1634      C1635   1.405       .  A
C1634     Br1639   1.934       .  S
C1635      C1636   1.406       .  A
C1636     Br1637   1.923       .  S
C1641      C1642   1.411       .  A
C1641      C1646   1.416       .  A
C1641     Br1648   1.930       .  S
C1642      C1643   1.410       .  A
C1643      C1644   1.412       .  A
C1643     Br1650   1.930       .  S
C1644      C1645   1.412       .  A
C1644     Br1649   1.921       .  S
C1645      C1646   1.411       .  A
C1646     Br1647   1.916       .  S
C1651      C1652   1.415       .  A
C1651      C1656   1.414       .  A
C1651     Br1658   1.933       .  S
C1652      C1653   1.418       .  A
C1653      C1654   1.413       .  A
C1653     Br1660   1.932       .  S
C1654      C1655   1.416       .  A
C1654     Br1659   1.934       .  S
C1655      C1656   1.415       .  A
C1656     Br1657   1.929       .  S
C1661      C1662   1.407       .  A
C1661      C1666   1.395       .  A
C1661     Br1668   1.936       .  S
C1662      C1663   1.403       .  A
C1663      C1664   1.400       .  A
C1663     Br1670   1.932       .  S
C1664      C1665   1.414       .  A
C1664     Br1669   1.930       .  S
C1665      C1666   1.414       .  A
C1666     Br1667   1.939       .  S
C1671      C1672   1.411       .  A
C1671      C1676   1.398       .  A
C1671     Br1678   1.940       .  S
C1672      C1673   1.417       .  A
C1673      C1674   1.405       .  A
C1673     Br1680   1.936       .  S
C1674      C1675   1.409       .  A
C1674     Br1679   1.934       .  S
C1675      C1676   1.410       .  A
C1676     Br1677   1.925       .  S
C1681      C1682   1.409       .  A
C1681      C1686   1.405       .  A
C1681     Br1688   1.933   1_565  S
C1682      C1683   1.409       .  A
C1683      C1684   1.411       .  A
C1683     Br1690   1.930       .  S
C1684      C1685   1.413       .  A
C1684     Br1689   1.930       .  S
C1685      C1686   1.412       .  A
C1686     Br1687   1.934   1_565  S
C1691      C1692   1.412       .  A
C1691      C1696   1.415       .  A
C1691     Br1698   1.924       .  S
C1692      C1693   1.414       .  A
C1693      C1694   1.410       .  A
C1693     Br1700   1.927       .  S
C1694      C1695   1.410       .  A
C1694     Br1699   1.933       .  S
C1695      C1696   1.416       .  A
C1696     Br1697   1.932       .  S
C1701      C1702   1.415       .  A
C1701      C1706   1.414       .  A
C1701     Br1708   1.933       .  S
C1702      C1703   1.420       .  A
C1703      C1704   1.415       .  A
C1703     Br1710   1.935       .  S
C1704      C1705   1.416       .  A
C1704     Br1709   1.935       .  S
C1705      C1706   1.416       .  A
C1706     Br1707   1.934       .  S
C1711      C1712   1.402       .  A
C1711      C1716   1.395   1_556  A
C1711     Br1718   1.932       .  S
C1712      C1713   1.407       .  A
C1713      C1714   1.401   1_556  A
C1713     Br1720   1.930       .  S
C1714      C1715   1.405       .  A
C1714     Br1719   1.929       .  S
C1715      C1716   1.409       .  A
C1716     Br1717   1.935       .  S
C1721      C1722   1.407       .  A
C1721      C1726   1.405       .  A
C1721     Br1728   1.934       .  S
C1722      C1723   1.401       .  A
C1723      C1724   1.401       .  A
C1723     Br1730   1.935       .  S
C1724      C1725   1.417       .  A
C1724     Br1729   1.929       .  S
C1725      C1726   1.417       .  A
C1726     Br1727   1.931       .  S
C1731      C1732   1.417       .  A
C1731      C1736   1.403       .  A
C1731     Br1738   1.936       .  S
C1732      C1733   1.415       .  A
C1733      C1734   1.403       .  A
C1733     Br1740   1.933       .  S
C1734      C1735   1.406       .  A
C1734     Br1739   1.932       .  S
C1735      C1736   1.405       .  A
C1736     Br1737   1.928       .  S
C1741      C1742   1.410       .  A
C1741      C1746   1.408       .  A
C1741     Br1748   1.927       .  S
C1742      C1743   1.414       .  A
C1743      C1744   1.420       .  A
C1743     Br1750   1.926       .  S
C1744      C1745   1.412       .  A
C1744     Br1749   1.928       .  S
C1745      C1746   1.409       .  A
C1746     Br1747   1.929       .  S
C1751      C1752   1.416       .  A
C1751      C1756   1.415       .  A
C1751     Br1758   1.929       .  S
C1752      C1753   1.413       .  A
C1753      C1754   1.415       .  A
C1753     Br1760   1.922       .  S
C1754      C1755   1.413       .  A
C1754     Br1759   1.932       .  S
C1755      C1756   1.416       .  A
C1756     Br1757   1.932       .  S
C1761      C1762   1.420       .  A
C1761      C1766   1.420       .  A
C1761     Br1768   1.931       .  S
C1762      C1763   1.416       .  A
C1763      C1764   1.419       .  A
C1763     Br1770   1.926       .  S
C1764      C1765   1.425       .  A
C1764     Br1769   1.937       .  S
C1765      C1766   1.419       .  A
C1766     Br1767   1.934       .  S
C1771      C1772   1.405       .  A
C1771      C1776   1.397   1_556  A
C1771     Br1778   1.928       .  S
C1772      C1773   1.405       .  A
C1773      C1774   1.401   1_556  A
C1773     Br1780   1.930       .  S
C1774      C1775   1.407       .  A
C1774     Br1779   1.930       .  S
C1775      C1776   1.403       .  A
C1776     Br1777   1.930       .  S
C1781      C1782   1.407       .  A
C1781      C1786   1.403       .  A
C1781     Br1788   1.929       .  S
C1782      C1783   1.406       .  A
C1783      C1784   1.401       .  A
C1783     Br1790   1.933       .  S
C1784      C1785   1.414       .  A
C1784     Br1789   1.936       .  S
C1785      C1786   1.415       .  A
C1786     Br1787   1.936       .  S
C1791      C1792   1.418       .  A
C1791      C1796   1.402       .  A
C1791     Br1798   1.931       .  S
C1792      C1793   1.420       .  A
C1793      C1794   1.401       .  A
C1793     Br1800   1.934       .  S
C1794      C1795   1.406       .  A
C1794     Br1799   1.937       .  S
C1795      C1796   1.403       .  A
C1796     Br1797   1.935       .  S
C1801      C1802   1.411       .  A
C1801      C1806   1.418       .  A
C1801     Br1808   1.928       .  S
C1802      C1803   1.408       .  A
C1803      C1804   1.410   1_554  A
C1803     Br1810   1.931   1_554  S
C1804      C1805   1.412   1_556  A
C1804     Br1809   1.925       .  S
C1805      C1806   1.413       .  A
C1806     Br1807   1.927       .  S
C1811      C1812   1.419       .  A
C1811      C1816   1.420       .  A
C1811     Br1818   1.934       .  S
C1812      C1813   1.419       .  A
C1813      C1814   1.416       .  A
C1813     Br1820   1.934       .  S
C1814      C1815   1.415       .  A
C1814     Br1819   1.932       .  S
C1815      C1816   1.416       .  A
C1816     Br1817   1.927       .  S
C1821      C1822   1.413       .  A
C1821      C1826   1.411       .  A
C1821     Br1828   1.927       .  S
C1822      C1823   1.414       .  A
C1823      C1824   1.417       .  A
C1823     Br1830   1.925       .  S
C1824      C1825   1.410       .  A
C1824     Br1829   1.923       .  S
C1825      C1826   1.412       .  A
C1826     Br1827   1.931       .  S
C1831      C1832   1.404       .  A
C1831      C1836   1.399       .  A
C1831     Br1838   1.932       .  S
C1832      C1833   1.406   1_556  A
C1833      C1834   1.402       .  A
C1833     Br1840   1.929       .  S
C1834      C1835   1.407   1_454  A
C1834     Br1839   1.929   1_455  S
C1835      C1836   1.406   1_655  A
C1836     Br1837   1.929   1_455  S
C1841      C1842   1.407       .  A
C1841      C1846   1.408       .  A
C1841     Br1848   1.930       .  S
C1842      C1843   1.405       .  A
C1843      C1844   1.402       .  A
C1843     Br1850   1.923       .  S
C1844      C1845   1.413       .  A
C1844     Br1849   1.931       .  S
C1845      C1846   1.418       .  A
C1846     Br1847   1.934       .  S
C1851      C1852   1.412       .  A
C1851      C1856   1.410       .  A
C1851     Br1858   1.920       .  S
C1852      C1853   1.404       .  A
C1853      C1854   1.400       .  A
C1853     Br1860   1.912       .  S
C1854      C1855   1.404       .  A
C1854     Br1859   1.930       .  S
C1855      C1856   1.406       .  A
C1856     Br1857   1.930       .  S
C1861      C1862   1.407       .  A
C1861      C1866   1.406       .  A
C1861     Br1868   1.932       .  S
C1862      C1863   1.409   1_554  A
C1863      C1864   1.411       .  A
C1863     Br1870   1.927       .  S
C1864      C1865   1.409   1_556  A
C1864     Br1869   1.927       .  S
C1865      C1866   1.411       .  A
C1866     Br1867   1.929       .  S
C1871      C1872   1.422       .  A
C1871      C1876   1.414       .  A
C1871     Br1878   1.926       .  S
C1872      C1873   1.424       .  A
C1873      C1874   1.414       .  A
C1873     Br1880   1.939       .  S
C1874      C1875   1.422       .  A
C1874     Br1879   1.944       .  S
C1875      C1876   1.419       .  A
C1876     Br1877   1.945       .  S
C1881      C1882   1.417       .  A
C1881      C1886   1.413       .  A
C1881     Br1888   1.934       .  S
C1882      C1883   1.415       .  A
C1883      C1884   1.413       .  A
C1883     Br1890   1.933       .  S
C1884      C1885   1.412       .  A
C1884     Br1889   1.926       .  S
C1885      C1886   1.414       .  A
C1886     Br1887   1.933       .  S
C1891      C1892   1.405   1_556  A
C1891      C1896   1.399       .  A
C1891     Br1898   1.929       .  S
C1892      C1893   1.406       .  A
C1893      C1894   1.394       .  A
C1893     Br1900   1.929       .  S
C1894      C1895   1.403   1_455  A
C1894     Br1899   1.933   1_455  S
C1895      C1896   1.404   1_654  A
C1896     Br1897   1.930   1_455  S
C1901      C1902   1.410       .  A
C1901      C1906   1.396       .  A
C1901     Br1908   1.922       .  S
C1902      C1903   1.417       .  A
C1903      C1904   1.404       .  A
C1903     Br1910   1.929       .  S
C1904      C1905   1.405       .  A
C1904     Br1909   1.933       .  S
C1905      C1906   1.401       .  A
C1906     Br1907   1.927       .  S
C1911      C1912   1.404       .  A
C1911      C1916   1.396       .  A
C1911     Br1918   1.923       .  S
C1912      C1913   1.410       .  A
C1913      C1914   1.402       .  A
C1913     Br1920   1.931       .  S
C1914      C1915   1.407       .  A
C1914     Br1919   1.924       .  S
C1915      C1916   1.404       .  A
C1916     Br1917   1.925       .  S
