geometry optimzed in LAMMPS
_audit_creation_date              2020-11-30 
_audit_creation_method            'lammps2cif' 
_symmetry_space_group_name_H-M    'P1' 
_symmetry_Int_Tables_number       1 
_symmetry_cell_setting            triclinic 
loop_ 
_symmetry_equiv_pos_as_xyz 
  x,y,z 
_cell_length_a                    37.66191684 
_cell_length_b                    38.126155647578116 
_cell_length_c                    38.32619893546145 
_cell_angle_alpha                 88.98598170488728 
_cell_angle_beta                  89.72487275289201 
_cell_angle_gamma                 91.97420112470218 
loop_ 
_atom_site_label 
_atom_site_type_symbol 
_atom_site_fract_x 
_atom_site_fract_y 
_atom_site_fract_z 
_atom_site_charge 
Zn1        Zn  0.47533504  0.45882931  0.97148726     1.49700
Zn2        Zn  0.53183370  0.46090500  0.03673932     1.49400
Zn3        Zn  0.53535079  0.52313070  0.97537134     1.49100
Zn4        Zn  0.47034560  0.52004700  0.03133998     1.49500
O5          O  0.50315639  0.49048230  0.00375543    -1.83900
O6          O  0.48576099  0.40572316  0.98269092    -0.74500
O7          O  0.58596627  0.47114956  0.02773551    -0.74400
O8          O  0.52891549  0.51517141  0.92251311    -0.73900
O9          O  0.52225433  0.40694077  0.02817259    -0.74600
O10         O  0.48879646  0.47124713  0.91901627    -0.74200
O11         O  0.58770420  0.51343241  0.98689449    -0.74700
O12         O  0.47917962  0.57340591  0.02044374    -0.74100
O13         O  0.52006483  0.47322658  0.08884764    -0.74900
O14         O  0.52511407  0.57579802  0.98387411    -0.74300
O15         O  0.47857300  0.51323825  0.08466840    -0.74800
O16         O  0.41781498  0.50672578  0.01927900    -0.74700
O17         O  0.42076469  0.46605865  0.97844976    -0.74400
C18         C  0.50418359  0.38943891  0.00561478     0.77300
C19         C  0.60372633  0.49229647  0.00732476     0.77800
C20         C  0.50997971  0.49412346  0.90409090     0.76800
C21         C  0.50175539  0.59138881  0.00177539     0.77200
C22         C  0.49895170  0.49444483  0.10339756     0.78300
C23         C  0.40234241  0.48557556  0.99805674     0.77400
Zn24       Zn  0.53536779  0.02886167  0.53472386     1.49700
Zn25       Zn  0.47498269  0.02761894  0.47347117     1.49400
Zn26       Zn  0.53450105  0.96628115  0.47678907     1.49100
Zn27       Zn  0.47167608  0.96724795  0.53649736     1.49500
O28         O  0.50402661  0.99744284  0.50540444    -1.83900
O29         O  0.52616371  0.08138849  0.52411178    -0.74500
O30         O  0.48440095  0.01554292  0.42127670    -0.74400
O31         O  0.58834809  0.97947565  0.48357185    -0.73900
O32         O  0.48783708  0.08084174  0.48006422    -0.74600
O33         O  0.58870471  0.02239310  0.52232022    -0.74200
O34         O  0.52404221  0.97351697  0.42404735    -0.74700
O35         O  0.47932960  0.91368596  0.52772828    -0.74100
O36         O  0.42088264  0.01981570  0.48496575    -0.74900
O37         O  0.52377924  0.91313664  0.48914103    -0.74300
O38         O  0.41838374  0.97857884  0.52700260    -0.74800
O39         O  0.48232646  0.97747310  0.58902071    -0.74700
O40         O  0.52580401  0.01871814  0.58801206    -0.74400
C41         C  0.50776118  0.09771666  0.50146712     0.77300
C42         C  0.50431781  0.99372327  0.40621278     0.77800
C43         C  0.60527359  0.00247478  0.50166835     0.76800
C44         C  0.50091621  0.89671472  0.50888314     0.77200
C45         C  0.40284535  0.99998556  0.50639705     0.78300
C46         C  0.50403542  0.99814269  0.60507174     0.77400
Zn47       Zn  0.96481950  0.46649833  0.48473829     1.49700
Zn48       Zn  0.02555251  0.53112044  0.48728856     1.49400
Zn49       Zn  0.96300835  0.52548242  0.54632717     1.49100
Zn50       Zn  0.02566278  0.46714897  0.54550200     1.49500
O51         O  0.99471746  0.49752079  0.51583661    -1.83900
O52         O  0.97571284  0.48011902  0.43259035    -0.74500
O53         O  0.01392524  0.58313603  0.49883513    -0.74400
O54         O  0.91005673  0.51193384  0.53725759    -0.73900
O55         O  0.01665109  0.52359326  0.43430163    -0.74600
O56         O  0.91060377  0.47248030  0.49520086    -0.74200
O57         O  0.97051515  0.57974711  0.53834383    -0.74700
O58         O  0.01523067  0.47448873  0.59807610    -0.74100
O59         O  0.07929027  0.52208298  0.49635238    -0.74900
O60         O  0.97325413  0.51417080  0.59811905    -0.74300
O61         O  0.07936432  0.47838507  0.53555074    -0.74800
O62         O  0.01628878  0.41439383  0.53507387    -0.74700
O63         O  0.97598077  0.41328735  0.49293062    -0.74400
C64         C  0.99653395  0.50265851  0.41679944     0.77300
C65         C  0.99181473  0.59827446  0.51876791     0.77800
C66         C  0.89336854  0.49100623  0.51673919     0.76800
C67         C  0.99395293  0.49381649  0.61465877     0.77200
C68         C  0.09631948  0.50040081  0.51542498     0.78300
C69         C  0.99659487  0.39706103  0.51382435     0.77400
Zn70       Zn  0.02950556  0.02912935  0.98434315     1.49700
Zn71       Zn  0.96835418  0.96557821  0.98359745     1.49400
Zn72       Zn  0.03148749  0.96506171  0.04350216     1.49100
Zn73       Zn  0.97026489  0.02305286  0.04732077     1.49500
O74         O  0.99994476  0.99559589  0.01448586    -1.83900
O75         O  0.01848043  0.02150996  0.93132182    -0.74500
O76         O  0.97798493  0.91220453  0.99305399    -0.74400
O77         O  0.08479438  0.97710426  0.03150949    -0.73900
O78         O  0.97768858  0.97798119  0.93017151    -0.74600
O79         O  0.08364723  0.02003954  0.99139768    -0.74200
O80         O  0.02086824  0.91256450  0.03281256    -0.74700
O81         O  0.97991965  0.00943549  0.09914178    -0.74100
O82         O  0.91480807  0.97399363  0.99527249    -0.74900
O83         O  0.02224527  0.97038049  0.09726148    -0.74300
O84         O  0.91717891  0.01244020  0.03827368    -0.74800
O85         O  0.97888424  0.07693089  0.04034169    -0.74700
O86         O  0.01853718  0.08123417  0.99715223    -0.74400
C87         C  0.99807855  0.00063406  0.91394012     0.77300
C88         C  0.99925214  0.89561070  0.01303295     0.77800
C89         C  0.10118447  0.99880135  0.01051162     0.76800
C90         C  0.00063604  0.98848118  0.11490618     0.77200
C91         C  0.89908634  0.99307187  0.01745975     0.78300
C92         C  0.99828728  0.09585834  0.01934842     0.77400
C93         C  0.70071915  0.46942353  0.02702302     0.03300
C94         C  0.66317335  0.46945783  0.02896530    -0.12800
C95         C  0.64382145  0.49220131  0.00668912     0.00800
C96         C  0.66328547  0.51475609  0.98296732    -0.11300
C97         C  0.70070219  0.51468143  0.98174366     0.03300
C98         C  0.71857111  0.49212441  0.00365942    -0.10800
H99         H  0.64932426  0.45191766  0.04736722     0.08900
H100        H  0.64954821  0.53235683  0.96560609     0.06500
H101        H  0.74741053  0.49213456  0.00240256     0.06300
C102        C  0.30401659  0.50431992  0.01598279     0.03300
C103        C  0.34152827  0.50586642  0.01759751    -0.12800
C104        C  0.36209888  0.48392499  0.99621380     0.00800
C105        C  0.34361503  0.46063595  0.97323045    -0.11300
C106        C  0.30598132  0.45985402  0.97173796     0.03300
C107        C  0.28714617  0.48149919  0.99319873    -0.10800
H108        H  0.35443276  0.52391258  0.03540532     0.08900
H109        H  0.35820131  0.44333527  0.95675520     0.06500
H110        H  0.25828390  0.48029420  0.99241303     0.06300
C111        C  0.97459029  0.48392310  0.32083783     0.03300
C112        C  0.97398522  0.48239814  0.35763663    -0.12800
C113        C  0.99735507  0.50442434  0.37728325     0.00800
C114        C  0.02152429  0.52768680  0.35860965    -0.11300
C115        C  0.02167257  0.52884382  0.32160412     0.03300
C116        C  0.99797733  0.50725419  0.30360241    -0.10800
H117        H  0.95538063  0.46426008  0.37073797     0.08900
H118        H  0.04018895  0.54440892  0.37257478     0.06500
H119        H  0.99820570  0.50814055  0.27524554     0.06300
C120        C  0.97387532  0.19040586  0.04454873     0.03300
C121        C  0.99540989  0.20978962  0.02114338    -0.12800
C122        C  0.01744941  0.19365561  0.99755330     0.00800
C123        C  0.01821316  0.15670505  0.99697063    -0.11300
C124        C  0.99710518  0.13562913  0.02052778     0.03300
C125        C  0.97455150  0.15311867  0.04433314    -0.10800
H126        H  0.99438112  0.23822507  0.02071271     0.08900
H127        H  0.03503888  0.14454274  0.97800199     0.06500
H128        H  0.95760123  0.13800219  0.06232252     0.06300
C129        C  0.97172698  0.51622693  0.70922441     0.03300
C130        C  0.97270371  0.51709095  0.67246984    -0.12800
C131        C  0.99291577  0.49265761  0.65396778     0.00800
C132        C  0.01261090  0.46798402  0.67357515    -0.11300
C133        C  0.01040087  0.46683585  0.71045373     0.03300
C134        C  0.98943983  0.49046140  0.72745920    -0.10800
H135        H  0.95869764  0.53732054  0.65857774     0.08900
H136        H  0.02968750  0.45008530  0.66043959     0.06500
H137        H  0.98910009  0.49052527  0.75581311     0.06300
Zn138      Zn  0.14219760  0.37295695  0.80421027     1.49700
Zn139      Zn  0.18694919  0.33044427  0.85761839     1.49400
Zn140      Zn  0.11697440  0.36596166  0.87867382     1.49100
Zn141      Zn  0.11426427  0.30003702  0.83085773     1.49500
O142        O  0.14059227  0.34099531  0.84263964    -1.83900
O143        O  0.19037707  0.38281859  0.78907342    -0.74500
O144        O  0.19583464  0.34916722  0.90442490    -0.74400
O145        O  0.08058456  0.39526192  0.84948778    -0.73900
O146        O  0.22414414  0.35507731  0.82704241    -0.74600
O147        O  0.12698143  0.41727362  0.82242605    -0.74200
O148        O  0.15998280  0.39405382  0.90159849    -0.74700
O149        O  0.08233206  0.28657150  0.86969569    -0.74100
O150        O  0.19111946  0.27881256  0.85945828    -0.74900
O151        O  0.09236670  0.32686038  0.91016789    -0.74300
O152        O  0.14517433  0.25848383  0.82844568    -0.74800
O153        O  0.08802425  0.30677306  0.78669334    -0.74700
O154        O  0.11062300  0.35703002  0.76447204    -0.74400
C155        C  0.22067363  0.37593103  0.80107962     0.77300
C156        C  0.18974019  0.38097347  0.91055411     0.77800
C157        C  0.09374571  0.41466455  0.82477204     0.76800
C158        C  0.07902152  0.29703566  0.90072489     0.77200
C159        C  0.17329158  0.25364985  0.84585943     0.78300
C160        C  0.09020817  0.32978563  0.76224074     0.77400
C161        C  0.97531878  0.79866566  0.99301745     0.03300
C162        C  0.99794886  0.78164164  0.01562214    -0.12800
C163        C  0.02196916  0.80005438  0.03644907     0.00800
C164        C  0.02238622  0.83719240  0.03583062    -0.11300
C165        C  0.99886235  0.85579959  0.01368402     0.03300
C166        C  0.97539814  0.83582096  0.99203769    -0.10800
H167        H  0.99776327  0.75313453  0.01606912     0.08900
H168        H  0.04126628  0.85136660  0.05201951     0.06500
H169        H  0.95766231  0.84893223  0.97432821     0.06300
Zn170      Zn  0.84125140  0.68517607  0.86711679     1.49700
Zn171      Zn  0.81265053  0.62664540  0.82873188     1.49400
Zn172      Zn  0.88574103  0.65735622  0.80519035     1.49100
Zn173      Zn  0.88114503  0.62128533  0.87967067     1.49500
O174        O  0.85708982  0.64596203  0.84450194    -1.83900
O175        O  0.79341392  0.67293491  0.88492958    -0.74500
O176        O  0.81556255  0.60918348  0.77966939    -0.74400
O177        O  0.88673902  0.70870926  0.79779052    -0.73900
O178        O  0.77735368  0.66546310  0.83071268    -0.74600
O179        O  0.83993403  0.72173210  0.83065027    -0.74200
O180        O  0.86570109  0.63567130  0.76088276    -0.74700
O181        O  0.91186371  0.59173687  0.84766803    -0.74100
O182        O  0.79676778  0.59119489  0.86365385    -0.74900
O183        O  0.93184184  0.63690453  0.81526514    -0.74300
O184        O  0.83909689  0.59342485  0.90457540    -0.74800
O185        O  0.90869099  0.65910743  0.91075516    -0.74700
O186        O  0.87221290  0.70310832  0.90338005    -0.74400
C187        C  0.77374218  0.68092878  0.85962911     0.77300
C188        C  0.83772168  0.61686829  0.75525499     0.77800
C189        C  0.86116690  0.72816758  0.80537872     0.76800
C190        C  0.92862699  0.60396188  0.82063300     0.77200
C191        C  0.80784085  0.58369348  0.89413854     0.78300
C192        C  0.89949071  0.69057431  0.91718668     0.77400
Zn193      Zn  0.88500095  0.35345662  0.16746883     1.49700
Zn194      Zn  0.80079889  0.34516096  0.17067973     1.49400
Zn195      Zn  0.83728633  0.41989780  0.15618120     1.49100
Zn196      Zn  0.83933799  0.35813925  0.09950641     1.49500
O197        O  0.84085343  0.36960690  0.14843427    -1.83900
O198        O  0.87251818  0.32509934  0.20908796    -0.74500
O199        O  0.76498260  0.37882872  0.18453155    -0.74400
O200        O  0.87251522  0.43304892  0.19322690    -0.73900
O201        O  0.81400983  0.31638812  0.21290837    -0.74600
O202        O  0.91364609  0.39276846  0.19151843    -0.74200
O203        O  0.78871723  0.43189947  0.17365336    -0.74700
O204        O  0.85005797  0.40304624  0.07357005    -0.74100
O205        O  0.77337601  0.31723702  0.13665248    -0.74900
O206        O  0.84303955  0.44559447  0.10998508    -0.74300
O207        O  0.78955143  0.34424557  0.08702675    -0.74800
O208        O  0.87206854  0.31755519  0.09006704    -0.74700
O209        O  0.90876102  0.31763045  0.13518795    -0.74400
C210        C  0.84514801  0.31226364  0.22454767     0.77300
C211        C  0.76275602  0.41193413  0.18347063     0.77800
C212        C  0.90110822  0.42041738  0.20482729     0.76800
C213        C  0.83161251  0.42818345  0.08405946     0.77200
C214        C  0.76750183  0.32564941  0.10499904     0.78300
C215        C  0.89788039  0.30412829  0.10653678     0.77400
Zn216      Zn  0.21262799  0.63552099  0.14679380     1.49700
Zn217      Zn  0.15329656  0.63642543  0.09321938     1.49400
Zn218      Zn  0.15403346  0.57943440  0.15230034     1.49100
Zn219      Zn  0.13201493  0.65621249  0.16678043     1.49500
O220        O  0.16163846  0.62751498  0.14107916    -1.83900
O221        O  0.23621464  0.65524132  0.10364668    -0.74500
O222        O  0.17062607  0.59480408  0.06792789    -0.74400
O223        O  0.18943150  0.56574922  0.18716250    -0.73900
O224        O  0.18753183  0.67382097  0.07865596    -0.74600
O225        O  0.23736366  0.59377920  0.16650244    -0.74200
O226        O  0.17207769  0.55370376  0.10993748    -0.74700
O227        O  0.10270687  0.62546468  0.20068316    -0.74100
O228        O  0.10754779  0.66133601  0.08327695    -0.74900
O229        O  0.10890231  0.57087745  0.18185622    -0.74300
O230        O  0.10491701  0.68836889  0.13407206    -0.74800
O231        O  0.16422169  0.68623330  0.19479754    -0.74700
O232        O  0.22004925  0.67265144  0.18227383    -0.74400
C233        C  0.22073505  0.67657189  0.08350010     0.77300
C234        C  0.18261446  0.56624487  0.08022453     0.77800
C235        C  0.22277984  0.57141714  0.18746921     0.76800
C236        C  0.09634686  0.59242135  0.20381595     0.77200
C237        C  0.09757388  0.68703715  0.10159275     0.78300
C238        C  0.19761252  0.69013061  0.19885455     0.77400
C239        C  0.52870224  0.29319761  0.02721921     0.03300
C240        C  0.50759515  0.27529413  0.00332010    -0.12800
C241        C  0.48393539  0.29246770  0.98190676     0.00800
C242        C  0.48249283  0.32953506  0.98283483    -0.11300
C243        C  0.50487411  0.34941207  0.00566912     0.03300
C244        C  0.52746453  0.33039344  0.02861595    -0.10800
H245        H  0.50796004  0.24681594  0.00291907     0.08900
H246        H  0.46385193  0.34266742  0.96610374     0.06500
H247        H  0.54377833  0.34425480  0.04742615     0.06300
C248        C  0.47785498  0.68618873  0.02348618     0.03300
C249        C  0.47866328  0.64912245  0.02445231    -0.12800
C250        C  0.50070172  0.63111592  0.00085162     0.00800
C251        C  0.52155954  0.65158578  0.97630621    -0.11300
C252        C  0.52033377  0.68874177  0.97553040     0.03300
C253        C  0.49883255  0.70507051  0.99936440    -0.10800
H254        H  0.46229341  0.63455038  0.04336999     0.08900
H255        H  0.53838162  0.63876696  0.95782784     0.06500
H256        H  0.49871477  0.73355789  0.99949098     0.06300
C257        C  0.48490495  0.96260711  0.31351275     0.03300
C258        C  0.50670337  0.98574249  0.29403530    -0.12800
C259        C  0.52729210  0.01195551  0.30963115     0.00800
C260        C  0.52656381  0.01488662  0.34642939    -0.11300
C261        C  0.50462480  0.99153574  0.36714398     0.03300
C262        C  0.48364874  0.96535775  0.35020649    -0.10800
H263        H  0.50745645  0.98340356  0.26583491     0.08900
H264        H  0.54294406  0.03494087  0.35879029     0.06500
H265        H  0.46650936  0.94744593  0.36537286     0.06300
C266        C  0.19894896  0.98045232  0.03134214     0.03300
C267        C  0.21642579  0.00070928  0.00586063    -0.12800
C268        C  0.19818311  0.01887673  0.98044129     0.00800
C269        C  0.16052356  0.01859842  0.98158854    -0.11300
C270        C  0.14145042  0.99922727  0.00837829     0.03300
C271        C  0.16142239  0.97944437  0.03284470    -0.10800
H272        H  0.24527549  0.00096776  0.00476341     0.08900
H273        H  0.14633920  0.03295554  0.96173670     0.06500
H274        H  0.14804391  0.96336934  0.05276249     0.06300
C275        C  0.79986903  0.97074254  0.00126361     0.03300
C276        C  0.78432923  0.99105953  0.02628895    -0.12800
C277        C  0.80433615  0.01401980  0.04657024     0.00800
C278        C  0.84174803  0.01495450  0.04358187    -0.11300
C279        C  0.85898857  0.99279731  0.01971131     0.03300
C280        C  0.83733385  0.97128763  0.99778934    -0.10800
H281        H  0.75551033  0.99137072  0.02777294     0.08900
H282        H  0.85712155  0.03318934  0.05930902     0.06500
H283        H  0.84932339  0.95559937  0.97793534     0.06300
Zn284      Zn  0.70088434  0.88243375  0.84587518     1.49700
Zn285      Zn  0.66931442  0.81814319  0.87183731     1.49400
Zn286      Zn  0.62179477  0.87885911  0.88197246     1.49100
Zn287      Zn  0.63735510  0.85504747  0.80624002     1.49500
O288        O  0.65526443  0.86006264  0.85142000    -1.83900
O289        O  0.73723844  0.84503120  0.84858240    -0.74500
O290        O  0.63277468  0.79408508  0.89919098    -0.74400
O291        O  0.65659501  0.90713068  0.91667568    -0.73900
O292        O  0.71296738  0.82849339  0.89807642    -0.74600
O293        O  0.70748272  0.91060153  0.88582900    -0.74200
O294        O  0.59268295  0.83488496  0.90488201    -0.74700
O295        O  0.58603794  0.86099446  0.80954526    -0.74100
O296        O  0.68100353  0.78735431  0.83365612    -0.74900
O297        O  0.59258725  0.90658820  0.84411535    -0.74300
O298        O  0.65357743  0.81039961  0.78765806    -0.74800
O299        O  0.65681196  0.89324897  0.77409531    -0.74700
O300        O  0.70502347  0.91119602  0.80215271    -0.74400
C301        C  0.73520578  0.82321824  0.87404522     0.77300
C302        C  0.60246503  0.80303042  0.90929175     0.77800
C303        C  0.68970251  0.91688204  0.91296750     0.76800
C304        C  0.58112254  0.89315376  0.81544733     0.77200
C305        C  0.67359223  0.78789361  0.80151660     0.78300
C306        C  0.68495162  0.91248971  0.77557281     0.77400
C307        C  0.52497708  0.97429988  0.70057339     0.03300
C308        C  0.50374558  0.99751022  0.71793470    -0.12800
C309        C  0.48246061  0.02093561  0.70031034     0.00800
C310        C  0.48230948  0.02121889  0.66325528    -0.11300
C311        C  0.50399359  0.99811271  0.64441816     0.03300
C312        C  0.52540718  0.97463927  0.66358824    -0.10800
H313        H  0.50371144  0.99724633  0.74628666     0.08900
H314        H  0.46560220  0.03919265  0.64926698     0.06500
H315        H  0.54204210  0.95673290  0.64989930     0.06300
Zn316      Zn  0.38451386  0.11120061  0.88366414     1.49700
Zn317      Zn  0.31967128  0.10531672  0.83860997     1.49400
Zn318      Zn  0.33233050  0.17121493  0.88263849     1.49100
Zn319      Zn  0.37721658  0.15958391  0.82065587     1.49500
O320        O  0.35387887  0.13639560  0.85754895    -1.83900
O321        O  0.34504575  0.08167423  0.91132305    -0.74500
O322        O  0.27241164  0.12636915  0.84563675    -0.74400
O323        O  0.36378694  0.18571335  0.92130778    -0.73900
O324        O  0.31868010  0.06030523  0.86450304    -0.74600
O325        O  0.41029005  0.15266089  0.91056061    -0.74200
O326        O  0.28229792  0.15696845  0.89367186    -0.74700
O327        O  0.38613530  0.20929068  0.83205365    -0.74100
O328        O  0.32890850  0.10232349  0.78796517    -0.74900
O329        O  0.33082825  0.21303683  0.85079897    -0.74300
O330        O  0.34205609  0.15900226  0.78278998    -0.74800
O331        O  0.41714656  0.13242018  0.80453765    -0.74700
O332        O  0.41185964  0.08729210  0.84226986    -0.74400
C333        C  0.31959177  0.06351993  0.89736078     0.77300
C334        C  0.26133730  0.14534032  0.87018811     0.77800
C335        C  0.39674420  0.17993816  0.92416068     0.76800
C336        C  0.35744596  0.22580452  0.83373883     0.77200
C337        C  0.32519688  0.13174708  0.77255776     0.78300
C338        C  0.42233239  0.10049258  0.81252622     0.77400
Zn339      Zn  0.30272884  0.84373093  0.15196058     1.49700
Zn340      Zn  0.35823308  0.84822943  0.09537128     1.49400
Zn341      Zn  0.35915140  0.89923243  0.15591481     1.49100
Zn342      Zn  0.38449795  0.82378004  0.16757844     1.49500
O343        O  0.35309587  0.85234376  0.14350252    -1.83900
O344        O  0.27661676  0.82541441  0.11018767    -0.74500
O345        O  0.33664490  0.89111054  0.07361327    -0.74400
O346        O  0.33080784  0.90376772  0.19806906    -0.73900
O347        O  0.32501420  0.81035928  0.08232757    -0.74600
O348        O  0.28001950  0.88263559  0.17755924    -0.74200
O349        O  0.33286090  0.92650773  0.11902618    -0.74700
O350        O  0.41346270  0.85576027  0.20004765    -0.74100
O351        O  0.40406849  0.82566901  0.08183313    -0.74900
O352        O  0.40724749  0.90942861  0.17674676    -0.74300
O353        O  0.41035591  0.79517585  0.13145895    -0.74800
O354        O  0.35402494  0.79021354  0.19649652    -0.74700
O355        O  0.29805932  0.80449820  0.18559677    -0.74400
C356        C  0.29218216  0.80596708  0.08870578     0.77300
C357        C  0.32241994  0.91675825  0.08884222     0.77800
C358        C  0.29788865  0.89719265  0.20173559     0.76800
C359        C  0.41940782  0.88903184  0.20051131     0.77200
C360        C  0.41509141  0.79870849  0.09847229     0.78300
C361        C  0.32057437  0.78581388  0.20087654     0.77400
Zn362      Zn  0.69111772  0.15602686  0.11446380     1.49700
Zn363      Zn  0.62791639  0.18398136  0.15829272     1.49400
Zn364      Zn  0.62154739  0.11332759  0.12468953     1.49100
Zn365      Zn  0.67179600  0.11975069  0.18536954     1.49500
O366        O  0.65398557  0.14446830  0.14667544    -1.83900
O367        O  0.68682399  0.20455022  0.09720901    -0.74500
O368        O  0.57894754  0.17723472  0.14142434    -0.74400
O369        O  0.65851650  0.08069817  0.10267376    -0.73900
O370        O  0.64698724  0.22707098  0.13238275    -0.74600
O371        O  0.68524114  0.12489198  0.07497928    -0.74200
O372        O  0.59445263  0.15014608  0.09389681    -0.74700
O373        O  0.64109505  0.07833177  0.19857770    -0.74100
O374        O  0.62980657  0.18922869  0.20923815    -0.74900
O375        O  0.59375903  0.09019455  0.16698502    -0.74300
O376        O  0.66872082  0.14977876  0.22686836    -0.74800
O377        O  0.72232803  0.10890081  0.17806601    -0.74700
O378        O  0.73910469  0.14652690  0.13570092    -0.74400
C379        C  0.66899904  0.23033090  0.10711412     0.77300
C380        C  0.57881930  0.17559407  0.10844002     0.77800
C381        C  0.68501035  0.09303299  0.08473522     0.76800
C382        C  0.60758958  0.07671480  0.19449726     0.77200
C383        C  0.64867693  0.17515360  0.23274850     0.78300
C384        C  0.74662579  0.12472872  0.15997221     0.77400
C385        C  0.47989389  0.52860809  0.19595006     0.03300
C386        C  0.47914606  0.52487145  0.15918912    -0.12800
C387        C  0.49843420  0.49792301  0.14281230     0.00800
C388        C  0.51697703  0.47421329  0.16470096    -0.11300
C389        C  0.51710567  0.47827126  0.20131083     0.03300
C390        C  0.49967632  0.50590133  0.21595960    -0.10800
H391        H  0.46341280  0.54246898  0.14366912     0.08900
H392        H  0.53080547  0.45262391  0.15351725     0.06500
H393        H  0.49963675  0.50843655  0.24416864     0.06300
C394        C  0.79567863  0.46316233  0.49820613     0.03300
C395        C  0.83318775  0.46645653  0.49520420    -0.12800
C396        C  0.85317224  0.48793320  0.51860647     0.00800
C397        C  0.83406020  0.50768453  0.54320808    -0.11300
C398        C  0.79660858  0.50415840  0.54573733     0.03300
C399        C  0.77856133  0.48036690  0.52467676    -0.10800
H400        H  0.84644661  0.45320591  0.47433763     0.08900
H401        H  0.84796695  0.52645608  0.55954749     0.06500
H402        H  0.74970230  0.47886983  0.52570369     0.06300
Zn403      Zn  0.67283681  0.40104912  0.33605777     1.49700
Zn404      Zn  0.60878141  0.38797362  0.38454188     1.49400
Zn405      Zn  0.61471790  0.35546810  0.31029711     1.49100
Zn406      Zn  0.66195437  0.33526585  0.37529531     1.49500
O407        O  0.63730218  0.36931086  0.35112667    -1.83900
O408        O  0.68964617  0.42777655  0.37537743    -0.74500
O409        O  0.57720069  0.41589485  0.34925056    -0.74400
O410        O  0.63739648  0.38308532  0.26877560    -0.73900
O411        O  0.64888018  0.41225308  0.41571173    -0.74600
O412        O  0.65761831  0.42987290  0.29663814    -0.74200
O413        O  0.56516059  0.36936126  0.31670497    -0.74700
O414        O  0.65955647  0.29214543  0.34834144    -0.74100
O415        O  0.58644515  0.34188863  0.40688162    -0.74900
O416        O  0.61993000  0.30369437  0.30684765    -0.74300
O417        O  0.63868461  0.32088308  0.42007140    -0.74800
O418        O  0.71193918  0.35162069  0.37690655    -0.74700
O419        O  0.71290804  0.37143555  0.32249477    -0.74400
C420        C  0.67973306  0.42551926  0.40701273     0.77300
C421        C  0.56228983  0.40184579  0.32242375     0.77800
C422        C  0.65170966  0.41405557  0.26832571     0.76800
C423        C  0.63994971  0.28270160  0.32317021     0.77200
C424        C  0.60500425  0.31770914  0.42073715     0.78300
C425        C  0.72623298  0.35299285  0.34673632     0.77400
C426        C  0.53269382  0.19411434  0.47799170     0.03300
C427        C  0.51140198  0.21097653  0.50163533    -0.12800
C428        C  0.48875424  0.19246100  0.52449890     0.00800
C429        C  0.48736950  0.15544051  0.52433157    -0.11300
C430        C  0.50891184  0.13713577  0.50079954     0.03300
C431        C  0.53174960  0.15689824  0.47744783    -0.10800
H432        H  0.51231838  0.23948979  0.50212840     0.08900
H433        H  0.46967280  0.14103809  0.54222408     0.06500
H434        H  0.54858864  0.14354893  0.45935607     0.06300
C435        C  0.47273622  0.80260316  0.48444245     0.03300
C436        C  0.47530166  0.83966844  0.48505439    -0.12800
C437        C  0.49843607  0.85708563  0.50879594     0.00800
C438        C  0.51899781  0.83624338  0.53184388    -0.11300
C439        C  0.51593093  0.79896051  0.53125114     0.03300
C440        C  0.49290628  0.78304557  0.50752475    -0.10800
H441        H  0.45946899  0.85483169  0.46717133     0.08900
H442        H  0.53701512  0.84884904  0.55004625     0.06500
H443        H  0.49075942  0.75458796  0.50683256     0.06300
Zn444      Zn  0.29181662  0.62518825  0.35465311     1.49700
Zn445      Zn  0.37348419  0.65526070  0.34325716     1.49400
Zn446      Zn  0.34261545  0.63385521  0.41758921     1.49100
Zn447      Zn  0.35395889  0.57656221  0.35812716     1.49500
O448        O  0.34145769  0.62425253  0.36840969    -1.83900
O449        O  0.28732289  0.66262707  0.31843590    -0.74500
O450        O  0.39919350  0.68955242  0.37599414    -0.74400
O451        O  0.29714366  0.65264861  0.43459334    -0.73900
O452        O  0.34332008  0.68310261  0.31182777    -0.74600
O453        O  0.25924385  0.63760309  0.39316297    -0.74200
O454        O  0.38001938  0.67175592  0.42862730    -0.74700
O455        O  0.33415574  0.54727488  0.39903545    -0.74100
O456        O  0.40471388  0.62688191  0.31122978    -0.74900
O457        O  0.34634246  0.58639617  0.43904802    -0.74300
O458        O  0.40273287  0.57335733  0.33573378    -0.74800
O459        O  0.32561525  0.56030324  0.31786453    -0.74700
O460        O  0.27380150  0.58168101  0.33149765    -0.74400
C461        C  0.31049053  0.68322380  0.30419255     0.77300
C462        C  0.39829374  0.69317789  0.40908991     0.77800
C463        C  0.26580675  0.65105892  0.42261351     0.76800
C464        C  0.32522113  0.56288117  0.42679865     0.77200
C465        C  0.41324131  0.59473963  0.31128522     0.78300
C466        C  0.29270400  0.56281743  0.31239371     0.77400
C467        C  0.19291078  0.52135923  0.48624591     0.03300
C468        C  0.21081447  0.49694062  0.50594324    -0.12800
C469        C  0.19391118  0.47579707  0.53097423     0.00800
C470        C  0.15651438  0.47702708  0.53494111    -0.11300
C471        C  0.13655368  0.50019907  0.51341610     0.03300
C472        C  0.15561865  0.52298120  0.48941302    -0.10800
H473        H  0.23948089  0.49564205  0.50293701     0.08900
H474        H  0.14324628  0.46020673  0.55435314     0.06500
H475        H  0.14174450  0.54169972  0.47341015     0.06300
C476        C  0.53820102  0.52464981  0.81077279     0.03300
C477        C  0.51809697  0.50117391  0.79118408    -0.12800
C478        C  0.49425761  0.47684367  0.80638514     0.00800
C479        C  0.49160415  0.47415710  0.84315704    -0.11300
C480        C  0.51274416  0.49667023  0.86458920     0.03300
C481        C  0.53604952  0.52224512  0.84772122    -0.10800
H482        H  0.52043484  0.50243659  0.76290913     0.08900
H483        H  0.47299743  0.45505739  0.85484680     0.06500
H484        H  0.55202379  0.54031567  0.86306675     0.06300
Zn485      Zn  0.31918438  0.35548061  0.65706891     1.49700
Zn486      Zn  0.36165345  0.35737012  0.58876565     1.49400
Zn487      Zn  0.37083870  0.41287171  0.64791075     1.49100
Zn488      Zn  0.40260460  0.34184720  0.65890008     1.49500
O489        O  0.36544883  0.36476315  0.63723151    -1.83900
O490        O  0.28652141  0.33171307  0.62395005    -0.74500
O491        O  0.34019138  0.40164118  0.56787661    -0.74400
O492        O  0.34930580  0.41756742  0.69451291    -0.73900
O493        O  0.32172429  0.32405105  0.57838051    -0.74600
O494        O  0.29809479  0.39949151  0.67330361    -0.74200
O495        O  0.33765524  0.43609820  0.61418278    -0.74700
O496        O  0.43295034  0.37759812  0.68470957    -0.74100
O497        O  0.40384945  0.32917562  0.57239177    -0.74900
O498        O  0.42062885  0.42859005  0.65968052    -0.74300
O499        O  0.42429706  0.30990831  0.62373049    -0.74800
O500        O  0.38186126  0.31382193  0.69821242    -0.74700
O501        O  0.32456644  0.32618632  0.70010559    -0.74400
C502        C  0.29205294  0.31963734  0.59379881     0.77300
C503        C  0.32526172  0.42590970  0.58492856     0.77800
C504        C  0.31617228  0.41289741  0.69779693     0.76800
C505        C  0.43536052  0.41108257  0.68409085     0.77200
C506        C  0.42170572  0.30736469  0.59058364     0.78300
C507        C  0.35160133  0.31195184  0.71315390     0.77400
Zn508      Zn  0.65276811  0.69187088  0.63797283     1.49700
Zn509      Zn  0.68524753  0.62301196  0.66995496     1.49400
Zn510      Zn  0.62325832  0.61836044  0.61987024     1.49100
Zn511      Zn  0.70123551  0.64623519  0.59460518     1.49500
O512        O  0.66528215  0.64585650  0.63057707    -1.83900
O513        O  0.67168670  0.70365970  0.68352755    -0.74500
O514        O  0.64901652  0.59808143  0.70004664    -0.74400
O515        O  0.59288313  0.65640509  0.59311915    -0.73900
O516        O  0.70577414  0.65948480  0.70010169    -0.74600
O517        O  0.60083396  0.69729809  0.63325877    -0.74200
O518        O  0.60044242  0.60093861  0.66791261    -0.74700
O519        O  0.67698238  0.61631441  0.56107813    -0.74100
O520        O  0.72420248  0.59252931  0.65631588    -0.74900
O521        O  0.64929744  0.57759829  0.59479281    -0.74300
O522        O  0.74748762  0.62859724  0.61597063    -0.74800
O523        O  0.71068074  0.69300235  0.57191842    -0.74700
O524        O  0.67569405  0.72545944  0.60328872    -0.74400
C525        C  0.69431815  0.69008498  0.70379517     0.77300
C526        C  0.61562369  0.59351036  0.69699312     0.77800
C527        C  0.58652751  0.68700377  0.60512878     0.76800
C528        C  0.67543152  0.58581619  0.57436712     0.77200
C529        C  0.75126730  0.60683735  0.64128909     0.78300
C530        C  0.69835591  0.72260621  0.57887743     0.77400
C531        C  0.30955691  0.03160618  0.52795721     0.03300
C532        C  0.28866427  0.00877481  0.50836888    -0.12800
C533        C  0.30318848  0.98227019  0.48927092     0.00800
C534        C  0.34055346  0.97871078  0.48890009    -0.11300
C535        C  0.36300389  0.00242019  0.50769239     0.03300
C536        C  0.34694483  0.02877665  0.52767216    -0.10800
H537        H  0.25996250  0.01093913  0.50903092     0.08900
H538        H  0.35199151  0.95793945  0.47407800     0.06500
H539        H  0.36328957  0.04673177  0.54280431     0.06300
C540        C  0.70515032  0.98915272  0.51353232     0.03300
C541        C  0.71923097  0.01571949  0.49168894    -0.12800
C542        C  0.69781094  0.03805571  0.47268247     0.00800
C543        C  0.66038202  0.03367484  0.47586938    -0.11300
C544        C  0.64497328  0.00680702  0.49802076     0.03300
C545        C  0.66784129  0.98442532  0.51671616    -0.10800
H546        H  0.74791245  0.01890330  0.48922423     0.08900
H547        H  0.64340016  0.05100175  0.46140004     0.06500
H548        H  0.65676436  0.96382734  0.53373996     0.06300
C549        C  0.02298844  0.30250003  0.53628686     0.03300
C550        C  0.00351868  0.28376873  0.51182648    -0.12800
C551        C  0.97979230  0.29970048  0.48973970     0.00800
C552        C  0.97706699  0.33670876  0.49007751    -0.11300
C553        C  0.99815107  0.35733620  0.51351099     0.03300
C554        C  0.02072433  0.33939302  0.53720206    -0.10800
H555        H  0.00558884  0.25540230  0.51117243     0.08900
H556        H  0.95867432  0.34914783  0.47255599     0.06500
H557        H  0.03627652  0.35382937  0.55619870     0.06300
C558        C  0.97427697  0.00365857  0.21068712     0.03300
C559        C  0.99339374  0.97818176  0.22789643    -0.12800
C560        C  0.01650417  0.95696246  0.21019269     0.00800
C561        C  0.01918651  0.96010638  0.17324480    -0.11300
C562        C  0.99886237  0.98495743  0.15442185     0.03300
C563        C  0.97672924  0.00699298  0.17394274    -0.10800
H564        H  0.99244202  0.97681729  0.25621472     0.08900
H565        H  0.03707142  0.94355060  0.15940183     0.06500
H566        H  0.96200247  0.02718413  0.16081183     0.06300
C567        C  0.97002172  0.69445568  0.54148023     0.03300
C568        C  0.96931361  0.65703151  0.54229306    -0.12800
C569        C  0.99103174  0.63815200  0.51873667     0.00800
C570        C  0.01245804  0.65798424  0.49437825    -0.11300
C571        C  0.01272246  0.69494459  0.49387376     0.03300
C572        C  0.99166681  0.71239180  0.51721955    -0.10800
H573        H  0.95234797  0.64293485  0.56103756     0.08900
H574        H  0.02902876  0.64485991  0.47587712     0.06500
H575        H  0.99191756  0.74089891  0.51622877     0.06300
Zn576      Zn  0.13790907  0.79295377  0.36539781     1.49700
Zn577      Zn  0.16873527  0.85805285  0.32907716     1.49400
Zn578      Zn  0.12386106  0.86800265  0.39175184     1.49100
Zn579      Zn  0.20306801  0.83429519  0.38789794     1.49500
O580        O  0.15599496  0.83794532  0.37108179    -1.83900
O581        O  0.15706273  0.77530790  0.32064031    -0.74500
O582        O  0.12941592  0.87876284  0.30499364    -0.74400
O583        O  0.09170622  0.83022364  0.41775358    -0.73900
O584        O  0.18949510  0.82110087  0.30004198    -0.74600
O585        O  0.08616389  0.79393811  0.37315043    -0.74200
O586        O  0.09571246  0.89234283  0.35024370    -0.74700
O587        O  0.20840590  0.86948823  0.42268776    -0.74100
O588        O  0.20392717  0.89451260  0.34087569    -0.74900
O589        O  0.15895036  0.90076404  0.42189274    -0.74300
O590        O  0.23835440  0.85017868  0.34936141    -0.74800
O591        O  0.20990723  0.78696407  0.41025441    -0.74700
O592        O  0.15644416  0.76197777  0.40285892    -0.74400
C593        C  0.18034802  0.78872616  0.29954553     0.77300
C594        C  0.10200325  0.89251881  0.31715415     0.77800
C595        C  0.07866351  0.80180496  0.40440819     0.76800
C596        C  0.19134483  0.89597622  0.43158023     0.77200
C597        C  0.23238744  0.87951244  0.33422840     0.78300
C598        C  0.18723861  0.76191094  0.41624306     0.77400
Zn599      Zn  0.88422340  0.12739304  0.37509032     1.49700
Zn600      Zn  0.87943717  0.20480205  0.36333384     1.49400
Zn601      Zn  0.90810466  0.15856628  0.30265332     1.49100
Zn602      Zn  0.82445281  0.15921200  0.32478754     1.49500
O603        O  0.87242516  0.16221796  0.34002587    -1.83900
O604        O  0.91890465  0.15610890  0.40909834    -0.74500
O605        O  0.92508036  0.22352566  0.34459229    -0.74400
O606        O  0.94254410  0.12518820  0.31920350    -0.73900
O607        O  0.87819666  0.19550818  0.41330086    -0.74600
O608        O  0.90522240  0.08756299  0.34437981    -0.74200
O609        O  0.93488071  0.20396438  0.29259582    -0.74700
O610        O  0.82626325  0.13897421  0.27685744    -0.74100
O611        O  0.84361115  0.23718016  0.35371964    -0.74900
O612        O  0.88327916  0.14027910  0.25951848    -0.74300
O613        O  0.80256346  0.20788933  0.32372610    -0.74800
O614        O  0.79562810  0.12860360  0.35918184    -0.74700
O615        O  0.83580593  0.11146246  0.39810421    -0.74400
C616        C  0.90792535  0.18456535  0.42230755     0.77300
C617        C  0.92256410  0.22728964  0.31178888     0.77800
C618        C  0.92908084  0.09442866  0.32108060     0.76800
C619        C  0.85035064  0.13357526  0.25413249     0.77200
C620        C  0.81417823  0.23581484  0.33837156     0.78300
C621        C  0.80340890  0.11328846  0.38791912     0.77400
C622        C  0.02507134  0.02674414  0.81910153     0.03300
C623        C  0.00097058  0.00638796  0.80029844    -0.12800
C624        C  0.97529855  0.98470169  0.81646708     0.00800
C625        C  0.97400111  0.98252392  0.85354925    -0.11300
C626        C  0.99853044  0.00277714  0.87412118     0.03300
C627        C  0.02383783  0.02534655  0.85605712    -0.10800
H628        H  0.00184091  0.00793799  0.77195540     0.08900
H629        H  0.95403874  0.96548449  0.86613506     0.06500
H630        H  0.04269114  0.04140512  0.87051432     0.06300
Zn631      Zn  0.80132871  0.86626408  0.64296321     1.49700
Zn632      Zn  0.88684153  0.86807731  0.65037522     1.49400
Zn633      Zn  0.84958635  0.87515948  0.57699547     1.49100
Zn634      Zn  0.84581534  0.93772533  0.63767557     1.49500
O635        O  0.84586102  0.88733048  0.62659507    -1.83900
O636        O  0.80898685  0.83241891  0.68172401    -0.74500
O637        O  0.91187250  0.83078799  0.62213415    -0.74400
O638        O  0.80443128  0.85397586  0.55710343    -0.73900
O639        O  0.86739603  0.83914757  0.68807672    -0.74600
O640        O  0.77417360  0.84274010  0.60592026    -0.74200
O641        O  0.88429938  0.83498953  0.57127054    -0.74700
O642        O  0.85186141  0.96329825  0.59118438    -0.74100
O643        O  0.91574528  0.90272928  0.68007328    -0.74900
O644        O  0.85816493  0.92193695  0.55274931    -0.74300
O645        O  0.88137723  0.94859060  0.67671449    -0.74800
O646        O  0.79924139  0.95211741  0.65894237    -0.74700
O647        O  0.76957001  0.90102150  0.66178653    -0.74400
C648        C  0.83757264  0.82613894  0.69763431     0.77300
C649        C  0.90499603  0.81875455  0.59188648     0.77800
C650        C  0.77750670  0.84069324  0.57310293     0.76800
C651        C  0.83991501  0.94666833  0.56481998     0.77200
C652        C  0.90625914  0.93223715  0.69172362     0.78300
C653        C  0.77176206  0.93363272  0.66750906     0.77400
Zn654      Zn  0.13994558  0.15801016  0.58079845     1.49700
Zn655      Zn  0.14714704  0.11485293  0.65093737     1.49400
Zn656      Zn  0.15486406  0.19821190  0.65136399     1.49100
Zn657      Zn  0.08052407  0.16169492  0.64581723     1.49500
O658        O  0.13021140  0.15842729  0.63171234    -1.83900
O659        O  0.17562608  0.12082735  0.57008046    -0.74500
O660        O  0.18582499  0.12778062  0.68130105    -0.74400
O661        O  0.18319243  0.22238228  0.61547515    -0.73900
O662        O  0.17585448  0.08657158  0.61729158    -0.74600
O663        O  0.16779584  0.20088422  0.56408673    -0.74200
O664        O  0.18943412  0.18537864  0.68792167    -0.74700
O665        O  0.06827854  0.21096030  0.65930311    -0.74100
O666        O  0.11326823  0.09027931  0.68566055    -0.74900
O667        O  0.12224786  0.23444167  0.66662015    -0.74300
O668        O  0.07030213  0.12856549  0.68782257    -0.74800
O669        O  0.05608462  0.15098317  0.60112146    -0.74700
O670        O  0.09215411  0.15855507  0.55655681    -0.74400
C671        C  0.18914533  0.09599969  0.58779309     0.77300
C672        C  0.20007422  0.15477961  0.69454616     0.77800
C673        C  0.18520599  0.22261618  0.58253698     0.76800
C674        C  0.08873083  0.23690474  0.66677182     0.77200
C675        C  0.08579677  0.10197672  0.70064031     0.78300
C676        C  0.06788794  0.17045149  0.57598151     0.77400
C677        C  0.03971514  0.08386776  0.78978600    -0.20100
C678        C  0.04977150  0.04947845  0.79731520    -0.06700
C679        C  0.07407924  0.03384939  0.77449361     0.14200
C680        C  0.08527070  0.05158640  0.74365469    -0.20200
C681        C  0.07299382  0.08496168  0.73443470    -0.06700
C682        C  0.05104096  0.10189946  0.75894015     0.14200
C683        C  0.03896851  0.13882163  0.75303475    -0.23500
H684        H  0.02062477  0.09568565  0.80683591     0.15500
H685        H  0.10304156  0.03853368  0.72617204     0.15500
C686        C  0.08708248  0.99739690  0.78112097    -0.23400
H687        H  0.02343058  0.14813904  0.77555495     0.05700
H688        H  0.02159791  0.13999332  0.72976893     0.08900
H689        H  0.06239802  0.15704323  0.74943973     0.08900
H690        H  0.07792394  0.97987816  0.75988933     0.08900
H691        H  0.07746408  0.98597574  0.80640644     0.08900
H692        H  0.11657380  0.99825256  0.78167499     0.05700
C693        C  0.92697825  0.98762642  0.77331573    -0.20100
C694        C  0.95053070  0.96640619  0.79177322    -0.06700
C695        C  0.95904560  0.93388607  0.77724003     0.14200
C696        C  0.94458193  0.92390074  0.74481247    -0.20200
C697        C  0.92217462  0.94579837  0.72536091    -0.06700
C698        C  0.91315545  0.97826023  0.74044023     0.14200
C699        C  0.89036203  0.00431994  0.72179368    -0.23500
H700        H  0.92162491  0.01326191  0.78357166     0.15500
H701        H  0.95148006  0.89872264  0.73449621     0.15500
C702        C  0.98467399  0.90975045  0.79461992    -0.23400
H703        H  0.88786760  0.02885420  0.73668658     0.05700
H704        H  0.86317173  0.99303529  0.71833751     0.08900
H705        H  0.90232007  0.01159369  0.69602396     0.08900
H706        H  0.97139110  0.88363796  0.79937859     0.08900
H707        H  0.99422019  0.91960783  0.82006842     0.08900
H708        H  0.00805885  0.90662437  0.77733615     0.05700
C709        C  0.07370740  0.76871498  0.46041153    -0.20100
C710        C  0.06029276  0.77447119  0.42675831    -0.06700
C711        C  0.03372710  0.75078757  0.41391749     0.14200
C712        C  0.02075840  0.72281876  0.43543845    -0.20200
C713        C  0.03403906  0.71744734  0.46915713    -0.06700
C714        C  0.06122264  0.74048940  0.48155010     0.14200
C715        C  0.07730172  0.73623620  0.51727278    -0.23500
H716        H  0.09488365  0.78586173  0.47008329     0.15500
H717        H  0.99904157  0.70591807  0.42650303     0.15500
C718        C  0.01782698  0.75557521  0.37819184    -0.23400
H719        H  0.10648379  0.73375971  0.51466049     0.05700
H720        H  0.06674204  0.71258129  0.53162014     0.08900
H721        H  0.07193932  0.75964764  0.53304055     0.08900
H722        H  0.03804910  0.75138308  0.35769973     0.08900
H723        H  0.00753681  0.78241728  0.37537930     0.08900
H724        H  0.99542456  0.73648812  0.37373694     0.05700
C725        C  0.95094011  0.77228402  0.59703217    -0.20100
C726        C  0.91942733  0.78383595  0.58165192    -0.06700
C727        C  0.90070866  0.76016203  0.55930762     0.14200
C728        C  0.91551524  0.72781024  0.55066666    -0.20200
C729        C  0.94848178  0.71778345  0.56372925    -0.06700
C730        C  0.96559950  0.73993998  0.58832267     0.14200
C731        C  0.00055105  0.73081711  0.60446408    -0.23500
H732        H  0.96498648  0.78909021  0.61526147     0.15500
H733        H  0.90253908  0.71141324  0.53137789     0.15500
C734        C  0.86493870  0.76842560  0.54435253    -0.23400
H735        H  0.02129900  0.75084750  0.59660686     0.05700
H736        H  0.00941243  0.70466355  0.59652365     0.08900
H737        H  0.99787616  0.73038727  0.63333675     0.08900
H738        H  0.86744018  0.79146474  0.52631133     0.08900
H739        H  0.84606413  0.77379202  0.56580541     0.08900
H740        H  0.85345072  0.74620620  0.52926714     0.05700
C741        C  0.93055413  0.01736971  0.25720315    -0.20100
C742        C  0.95722683  0.02944011  0.23356346    -0.06700
C743        C  0.97418628  0.06234694  0.23908725     0.14200
C744        C  0.96481863  0.08187080  0.26818861    -0.20200
C745        C  0.93870572  0.06976761  0.29260730    -0.06700
C746        C  0.92084162  0.03712014  0.28640686     0.14200
C747        C  0.89191429  0.02259160  0.31035082    -0.23500
H748        H  0.91834111  0.99154262  0.25353437     0.15500
H749        H  0.97857912  0.10693438  0.27188237     0.15500
C750        C  0.00366181  0.07621612  0.21529178    -0.23400
H751        H  0.88132388  0.99663881  0.30169778     0.05700
H752        H  0.86946124  0.04069864  0.31070126     0.08900
H753        H  0.90250451  0.01913950  0.33712883     0.08900
H754        H  0.99341954  0.07950029  0.18837470     0.08900
H755        H  0.02576199  0.05767019  0.21518498     0.08900
H756        H  0.01458839  0.10212037  0.22371277     0.05700
C757        C  0.02356655  0.91253141  0.25813169    -0.20100
C758        C  0.03984454  0.93546985  0.23296392    -0.06700
C759        C  0.07626499  0.94466936  0.23672625     0.14200
C760        C  0.09518916  0.93102697  0.26515495    -0.20200
C761        C  0.07867954  0.90913172  0.29085509    -0.06700
C762        C  0.04245740  0.89940724  0.28700589     0.14200
C763        C  0.02390067  0.87486581  0.31294085    -0.23500
H764        H  0.99539875  0.90614201  0.25594699     0.15500
H765        H  0.12325632  0.93784257  0.26759918     0.15500
C766        C  0.09494505  0.97024855  0.21182022    -0.23400
H767        H  0.99569943  0.86954439  0.30581297     0.05700
H768        H  0.02444942  0.88666352  0.33921319     0.08900
H769        H  0.03743769  0.84944993  0.31398289     0.08900
H770        H  0.08147399  0.99570547  0.21177782     0.08900
H771        H  0.09465302  0.95952335  0.18510599     0.08900
H772        H  0.12311943  0.97531034  0.21920603     0.05700
C773        C  0.08398506  0.23208399  0.55601177    -0.20100
C774        C  0.06023259  0.20889710  0.57428405    -0.06700
C775        C  0.02914933  0.22291502  0.58893643     0.14200
C776        C  0.02214909  0.25868232  0.58337995    -0.20200
C777        C  0.04325532  0.28011239  0.56067576    -0.06700
C778        C  0.07585153  0.26725256  0.54905479     0.14200
C779        C  0.10072674  0.28919111  0.52606922    -0.23500
H780        H  0.10805122  0.22229995  0.54491969     0.15500
H781        H  0.99683730  0.26833809  0.59185626     0.15500
C782        C  0.00108903  0.19989566  0.60708888    -0.23400
H783        H  0.12747073  0.29059509  0.53799905     0.05700
H784        H  0.09174437  0.31643899  0.52258083     0.08900
H785        H  0.10271189  0.27708835  0.50002779     0.08900
H786        H  0.01173977  0.18776615  0.63114975     0.08900
H787        H  0.99161841  0.17898270  0.58924097     0.08900
H788        H  0.97770512  0.21498315  0.61485296     0.05700
C789        C  0.95638799  0.22998884  0.42404464    -0.20100
C790        C  0.93020266  0.20981289  0.44237693    -0.06700
C791        C  0.91774160  0.22230410  0.47455868     0.14200
C792        C  0.93168545  0.25417861  0.48760039    -0.20200
C793        C  0.95761083  0.27457969  0.46913910    -0.06700
C794        C  0.97006308  0.26214949  0.43695354     0.14200
C795        C  0.99807367  0.28283343  0.41643734    -0.23500
H796        H  0.96523949  0.22123858  0.39883540     0.15500
H797        H  0.92348252  0.26254440  0.51321179     0.15500
C798        C  0.88997935  0.20156904  0.49545935    -0.23400
H799        H  0.00453589  0.26994712  0.39154217     0.05700
H800        H  0.02281000  0.28545127  0.43195450     0.08900
H801        H  0.98837774  0.30938395  0.41017134     0.08900
H802        H  0.89958529  0.17489011  0.50126775     0.08900
H803        H  0.86481386  0.19927518  0.48060789     0.08900
H804        H  0.88413025  0.21423866  0.52062099     0.05700
C805        C  0.75370590  0.94752012  0.51114720    -0.20100
C806        C  0.73193076  0.96790756  0.53206821    -0.06700
C807        C  0.74462500  0.97804657  0.56514017     0.14200
C808        C  0.77933293  0.96996389  0.57514476    -0.20200
C809        C  0.80227363  0.95175656  0.55322315    -0.06700
C810        C  0.78871805  0.93982981  0.52083652     0.14200
C811        C  0.81164629  0.92178333  0.49477418    -0.23500
H812        H  0.74445254  0.94070546  0.48529324     0.15500
H813        H  0.78896429  0.97954809  0.59987967     0.15500
C814        C  0.72307194  0.99944087  0.58961691    -0.23400
H815        H  0.79724492  0.91636868  0.47011787     0.05700
H816        H  0.82012732  0.89626066  0.50549426     0.08900
H817        H  0.83536280  0.93876315  0.48818533     0.08900
H818        H  0.69608076  0.00427397  0.57966662     0.08900
H819        H  0.73693158  0.02518149  0.59384673     0.08900
H820        H  0.72009266  0.98527341  0.61508676     0.05700
C821        C  0.74304812  0.08671825  0.46539936    -0.20100
C822        C  0.71722575  0.06459574  0.44966537    -0.06700
C823        C  0.71819586  0.06127757  0.41299381     0.14200
C824        C  0.74595070  0.07823792  0.39347374    -0.20200
C825        C  0.77359771  0.09761799  0.40973667    -0.06700
C826        C  0.77128795  0.10284372  0.44612729     0.14200
C827        C  0.79846480  0.12541920  0.46488000    -0.23500
H828        H  0.74253724  0.08926411  0.49353264     0.15500
H829        H  0.74696821  0.07497185  0.36545425     0.15500
C830        C  0.69113807  0.03831915  0.39463478    -0.23400
H831        H  0.79165279  0.12799627  0.49292851     0.05700
H832        H  0.79989097  0.15215784  0.45287170     0.08900
H833        H  0.82493766  0.11362882  0.46338949     0.08900
H834        H  0.66415911  0.04825465  0.39905150     0.08900
H835        H  0.69215051  0.01091935  0.40479148     0.08900
H836        H  0.69601328  0.03806974  0.36603681     0.05700
C837        C  0.23963228  0.09589612  0.54492607    -0.20100
C838        C  0.22324369  0.08078507  0.57508818    -0.06700
C839        C  0.24217000  0.05488650  0.59395424     0.14200
C840        C  0.27452001  0.04305301  0.58051124    -0.20200
C841        C  0.28906885  0.05633858  0.54898759    -0.06700
C842        C  0.27207598  0.08424326  0.53194997     0.14200
C843        C  0.28674620  0.10090749  0.49874181    -0.23500
H844        H  0.22694380  0.11688248  0.53082784     0.15500
H845        H  0.28709557  0.02110457  0.59318128     0.15500
C846        C  0.22851604  0.03863249  0.62779003    -0.23400
H847        H  0.29083756  0.12960024  0.50234743     0.05700
H848        H  0.26765809  0.09642202  0.47715500     0.08900
H849        H  0.31266731  0.09024470  0.49117303     0.08900
H850        H  0.20207094  0.02563291  0.62371690     0.08900
H851        H  0.22672128  0.05909791  0.64791664     0.08900
H852        H  0.24644069  0.01842512  0.63813262     0.05700
C853        C  0.23422227  0.90884966  0.47822521    -0.20100
C854        C  0.21348638  0.92198628  0.45073567    -0.06700
C855        C  0.22418893  0.95425917  0.43459797     0.14200
C856        C  0.25538052  0.97208287  0.44582499    -0.20200
C857        C  0.27670478  0.95824910  0.47248898    -0.06700
C858        C  0.26546639  0.92653188  0.48927067     0.14200
C859        C  0.28625578  0.91154095  0.51917044    -0.23500
H860        H  0.22683794  0.88352183  0.48992218     0.15500
H861        H  0.26295875  0.99736247  0.43415250     0.15500
C862        C  0.20354147  0.96924747  0.40461115    -0.23400
H863        H  0.27387363  0.88654689  0.52940080     0.05700
H864        H  0.28755195  0.93047126  0.54085263     0.08900
H865        H  0.31362779  0.90624978  0.51029930     0.08900
H866        H  0.17584806  0.97362679  0.41310664     0.08900
H867        H  0.20319750  0.95082297  0.38253105     0.08900
H868        H  0.21543463  0.99471978  0.39506192     0.05700
C869        C  0.76390338  0.78893665  0.53881032    -0.20100
C870        C  0.75114405  0.81869034  0.55489340    -0.06700
C871        C  0.71545820  0.81863718  0.56596166     0.14200
C872        C  0.69630115  0.78669925  0.56871135    -0.20200
C873        C  0.71253204  0.75503479  0.56100887    -0.06700
C874        C  0.74526174  0.75654040  0.54228356     0.14200
C875        C  0.76254835  0.72433111  0.52876242    -0.23500
H876        H  0.79085450  0.78967577  0.52872296     0.15500
H877        H  0.67005907  0.78634574  0.58049722     0.15500
C878        C  0.69855836  0.85141179  0.57844775    -0.23400
H879        H  0.78661837  0.73128187  0.51290236     0.05700
H880        H  0.74369429  0.70957421  0.51180937     0.08900
H881        H  0.77104831  0.70736757  0.55079760     0.08900
H882        H  0.71638397  0.87500201  0.57462632     0.08900
H883        H  0.69182101  0.84849928  0.60661648     0.08900
H884        H  0.67386152  0.85575829  0.56350599     0.05700
C885        C  0.27169990  0.26592041  0.56447419    -0.20100
C886        C  0.26366575  0.29902595  0.57717830    -0.06700
C887        C  0.22795720  0.30895595  0.57939505     0.14200
C888        C  0.20108652  0.28372921  0.57386046    -0.20200
C889        C  0.20927927  0.24902871  0.56703147    -0.06700
C890        C  0.24463025  0.24033611  0.55997758     0.14200
C891        C  0.25402915  0.20319642  0.55190989    -0.23500
H892        H  0.29919859  0.25873953  0.56216570     0.15500
H893        H  0.17386978  0.29006538  0.57961775     0.15500
C894        C  0.21718168  0.34501819  0.58988523    -0.23400
H895        H  0.28302501  0.20089250  0.54750548     0.05700
H896        H  0.23998535  0.19462525  0.52796501     0.08900
H897        H  0.24605458  0.18527065  0.57394866     0.08900
H898        H  0.24001531  0.36395089  0.59176876     0.08900
H899        H  0.20324327  0.34332088  0.61548677     0.08900
H900        H  0.19877965  0.35559510  0.57012748     0.05700
C901        C  0.61403127  0.56078042  0.75451517    -0.20100
C902        C  0.59540887  0.57962209  0.72867615    -0.06700
C903        C  0.55919024  0.58620814  0.73515310     0.14200
C904        C  0.54244186  0.57207726  0.76556422    -0.20200
C905        C  0.56035555  0.55066250  0.78965586    -0.06700
C906        C  0.59696335  0.54602363  0.78448289     0.14200
C907        C  0.61761203  0.52391458  0.80963982    -0.23500
H908        H  0.64201314  0.55625230  0.75063414     0.15500
H909        H  0.51416988  0.57530858  0.76917975     0.15500
C910        C  0.53775039  0.60776387  0.71017323    -0.23400
H911        H  0.64598183  0.52272803  0.80184226     0.05700
H912        H  0.60613392  0.49669736  0.81068488     0.08900
H913        H  0.61645914  0.53528142  0.83607516     0.08900
H914        H  0.53552788  0.59444677  0.68472736     0.08900
H915        H  0.55064953  0.63419622  0.70639360     0.08900
H916        H  0.51035908  0.61132423  0.72006109     0.05700
C917        C  0.45126233  0.47577633  0.75827480    -0.20100
C918        C  0.47241623  0.45638865  0.78114966    -0.06700
C919        C  0.48120875  0.42213331  0.77201939     0.14200
C920        C  0.47000189  0.40871055  0.73969301    -0.20200
C921        C  0.45047387  0.42884218  0.71563758    -0.06700
C922        C  0.44053325  0.46289040  0.72570556     0.14200
C923        C  0.41876908  0.48629844  0.70267213    -0.23500
H924        H  0.44521823  0.50242890  0.76507386     0.15500
H925        H  0.47684936  0.38224713  0.73312886     0.15500
C926        C  0.50338831  0.40020327  0.79594786    -0.23400
H927        H  0.41409538  0.51196064  0.71487244     0.05700
H928        H  0.39235250  0.47366597  0.69777897     0.08900
H929        H  0.43294617  0.49179517  0.67760796     0.08900
H930        H  0.48961140  0.39640500  0.82148283     0.08900
H931        H  0.52966222  0.41354513  0.80007207     0.08900
H932        H  0.50790829  0.37392231  0.78504438     0.05700
C933        C  0.23715452  0.47457131  0.57875237    -0.20100
C934        C  0.21899739  0.45564354  0.55281879    -0.06700
C935        C  0.23568609  0.42659239  0.53833412     0.14200
C936        C  0.27033335  0.41830181  0.54869348    -0.20200
C937        C  0.28965969  0.43857162  0.57307923    -0.06700
C938        C  0.27209454  0.46684685  0.58883835     0.14200
C939        C  0.29021982  0.49045984  0.61497730    -0.23500
H940        H  0.22507721  0.49777537  0.58880949     0.15500
H941        H  0.28241529  0.39577433  0.53729304     0.15500
C942        C  0.21750656  0.40553618  0.51025678    -0.23400
H943        H  0.27342718  0.51257999  0.62232083     0.05700
H944        H  0.31536300  0.50183235  0.60369755     0.08900
H945        H  0.29576896  0.47557825  0.63932654     0.08900
H946        H  0.21331856  0.42236523  0.48680936     0.08900
H947        H  0.19133207  0.39512930  0.51996052     0.08900
H948        H  0.23345105  0.38301163  0.50231362     0.05700
C949        C  0.24854359  0.70022816  0.45863656    -0.20100
C950        C  0.23768860  0.67022822  0.44019735    -0.06700
C951        C  0.20227217  0.66735883  0.42841480     0.14200
C952        C  0.18279921  0.69782574  0.42571128    -0.20200
C953        C  0.19808267  0.73028328  0.43557233    -0.06700
C954        C  0.22879652  0.73058410  0.45657232     0.14200
C955        C  0.24244294  0.76284613  0.47503153    -0.23500
H956        H  0.27461045  0.70181276  0.47051474     0.15500
H957        H  0.15761853  0.69668637  0.41210673     0.15500
C958        C  0.18584550  0.63339694  0.41566732    -0.23400
H959        H  0.24626834  0.75637324  0.50309824     0.05700
H960        H  0.22352852  0.78448906  0.47364604     0.08900
H961        H  0.26831927  0.77200231  0.46352938     0.08900
H962        H  0.20325508  0.61094528  0.42050763     0.08900
H963        H  0.18038392  0.63563951  0.38727976     0.08900
H964        H  0.16047252  0.62758072  0.42982573     0.05700
C965        C  0.26212829  0.54075155  0.41932664    -0.20100
C966        C  0.28775068  0.55808104  0.44035899    -0.06700
C967        C  0.27624317  0.57167883  0.47264456     0.14200
C968        C  0.24060089  0.56622570  0.48326883    -0.20200
C969        C  0.21671574  0.54470621  0.46447854    -0.06700
C970        C  0.22714461  0.53343923  0.43127084     0.14200
C971        C  0.20192223  0.51148896  0.40963572    -0.23500
H972        H  0.26980476  0.53138621  0.39394048     0.15500
H973        H  0.23274778  0.57424143  0.50912653     0.15500
C974        C  0.30162457  0.58921108  0.49778376    -0.23400
H975        H  0.21409348  0.50439481  0.38443033     0.05700
H976        H  0.17772061  0.52640641  0.40407614     0.08900
H977        H  0.19421466  0.48676087  0.42388497     0.08900
H978        H  0.31291067  0.61409260  0.48646264     0.08900
H979        H  0.32337370  0.57130441  0.50423488     0.08900
H980        H  0.28830742  0.59577147  0.52263645     0.05700
C981        C  0.51755641  0.75375911  0.57917807    -0.20100
C982        C  0.53632331  0.77437877  0.55384542    -0.06700
C983        C  0.57089667  0.76457832  0.54442060     0.14200
C984        C  0.58563299  0.73464213  0.56014153    -0.20200
C985        C  0.56665457  0.71376388  0.58502323    -0.06700
C986        C  0.53249644  0.72405391  0.59519791     0.14200
C987        C  0.51166162  0.70337803  0.62266576    -0.23500
H988        H  0.49060183  0.76039655  0.58569575     0.15500
H989        H  0.61247294  0.72779902  0.55338511     0.15500
C990        C  0.59195709  0.78530162  0.51713697    -0.23400
H991        H  0.48519805  0.71448259  0.62727433     0.05700
H992        H  0.52638339  0.70364535  0.64769121     0.08900
H993        H  0.50758418  0.67582182  0.61424313     0.08900
H994        H  0.59587942  0.81285875  0.52559647     0.08900
H995        H  0.57750006  0.78497416  0.49195684     0.08900
H996        H  0.61853077  0.77431673  0.51283005     0.05700
C997        C  0.46470460  0.76867145  0.43017233    -0.20100
C998        C  0.44944805  0.78201806  0.46048535    -0.06700
C999        C  0.41664623  0.76727801  0.47253065     0.14200
C1000       C  0.40066501  0.73880035  0.45494298    -0.20200
C1001       C  0.41660854  0.72425150  0.42543360    -0.06700
C1002       C  0.44868160  0.74020967  0.41235105     0.14200
C1003       C  0.46730388  0.72625907  0.38088540    -0.23500
H1004       H  0.49044065  0.77927772  0.42160817     0.15500
H1005       H  0.37566845  0.72746881  0.46471407     0.15500
C1006       C  0.39921300  0.78080728  0.50486465    -0.23400
H1007       H  0.49306831  0.74049309  0.37569061     0.05700
H1008       H  0.45058832  0.72950748  0.35736864     0.08900
H1009       H  0.47272471  0.69806457  0.38514575     0.08900
H1010       H  0.39406155  0.80913042  0.50119730     0.08900
H1011       H  0.41680854  0.77732728  0.52773295     0.08900
H1012       H  0.37349314  0.76670733  0.51063263     0.05700
C1013       C  0.43695847  0.22929420  0.53127031    -0.20100
C1014       C  0.46660858  0.21438969  0.54681665    -0.06700
C1015       C  0.48093407  0.22957574  0.57720317     0.14200
C1016       C  0.46615934  0.26004425  0.59051375    -0.20200
C1017       C  0.43763503  0.27635560  0.57383437    -0.06700
C1018       C  0.42217078  0.25984505  0.54430153     0.14200
C1019       C  0.38984713  0.27371836  0.52636796    -0.23500
H1020       H  0.42665314  0.21807783  0.50738950     0.15500
H1021       H  0.47753224  0.27161308  0.61374620     0.15500
C1022       C  0.51270099  0.21422655  0.59477854    -0.23400
H1023       H  0.38072604  0.25656591  0.50481824     0.05700
H1024       H  0.39607248  0.30013835  0.51486401     0.08900
H1025       H  0.36760596  0.27503458  0.54535922     0.08900
H1026       H  0.53576426  0.21506797  0.57659687     0.08900
H1027       H  0.50635999  0.18653774  0.60264517     0.08900
H1028       H  0.52045221  0.22890433  0.61849348     0.05700
C1029       C  0.77450455  0.31891919  0.36919241    -0.20100
C1030       C  0.75486333  0.32895831  0.34006063    -0.06700
C1031       C  0.75693546  0.30967315  0.30888341     0.14200
C1032       C  0.77661070  0.27915332  0.30886717    -0.20200
C1033       C  0.79389490  0.26778965  0.33900243    -0.06700
C1034       C  0.79331577  0.28825978  0.36950888     0.14200
C1035       C  0.81032839  0.27705362  0.40343721    -0.23500
H1036       H  0.77301667  0.33396999  0.39291521     0.15500
H1037       H  0.77806555  0.26379923  0.28544468     0.15500
C1038       C  0.73727613  0.31983793  0.27625689    -0.23400
H1039       H  0.80345711  0.29441727  0.42526608     0.05700
H1040       H  0.83970157  0.27830021  0.40093502     0.08900
H1041       H  0.80096325  0.24998235  0.41082663     0.08900
H1042       H  0.74605724  0.34669215  0.26752840     0.08900
H1043       H  0.70821206  0.31891145  0.28132662     0.08900
H1044       H  0.74242476  0.30173578  0.25453517     0.05700
C1045       C  0.55663129  0.27109143  0.41879402    -0.20100
C1046       C  0.58815621  0.28389265  0.43435878    -0.06700
C1047       C  0.60462425  0.26222764  0.45976585     0.14200
C1048       C  0.58811194  0.22992220  0.47017779    -0.20200
C1049       C  0.55571170  0.21815308  0.45591427    -0.06700
C1050       C  0.54036228  0.23868017  0.42920278     0.14200
C1051       C  0.50590047  0.22684694  0.41261630    -0.23500
H1052       H  0.54450589  0.28657562  0.39838572     0.15500
H1053       H  0.59925732  0.21486488  0.49147596     0.15500
C1054       C  0.63866946  0.27353476  0.47755968    -0.23400
H1055       H  0.49767597  0.24547005  0.39180636     0.05700
H1056       H  0.48438112  0.22482401  0.43251428     0.08900
H1057       H  0.50905977  0.20077392  0.40074996     0.08900
H1058       H  0.63571956  0.29967627  0.48935540     0.08900
H1059       H  0.66099473  0.27460719  0.45854101     0.08900
H1060       H  0.64585170  0.25484591  0.49872258     0.05700
C1061       C  0.73618537  0.57898624  0.55016687    -0.20100
C1062       C  0.70813590  0.56456928  0.57114814    -0.06700
C1063       C  0.71431016  0.53332140  0.59045009     0.14200
C1064       C  0.74670277  0.51628505  0.58590381    -0.20200
C1065       C  0.77335040  0.52962129  0.56280854    -0.06700
C1066       C  0.76849875  0.56232866  0.54615832     0.14200
C1067       C  0.79655334  0.57880435  0.52223251    -0.23500
H1068       H  0.73286828  0.60354454  0.53610885     0.15500
H1069       H  0.75017518  0.49085420  0.59827495     0.15500
C1070       C  0.68691766  0.51719354  0.61517610    -0.23400
H1071       H  0.78840316  0.60440696  0.51117799     0.05700
H1072       H  0.80173930  0.56127268  0.50012258     0.08900
H1073       H  0.82148204  0.58351554  0.53701687     0.08900
H1074       H  0.66212273  0.51060277  0.60080794     0.08900
H1075       H  0.68126616  0.53576496  0.63631262     0.08900
H1076       H  0.69619931  0.49266749  0.62765332     0.05700
C1077       C  0.74746739  0.42100032  0.48061541    -0.20100
C1078       C  0.77134980  0.44882124  0.47107212    -0.06700
C1079       C  0.76338245  0.46991040  0.44167529     0.14200
C1080       C  0.73193853  0.46310632  0.42302507    -0.20200
C1081       C  0.70762183  0.43571401  0.43278360    -0.06700
C1082       C  0.71601200  0.41395358  0.46170976     0.14200
C1083       C  0.69251369  0.38274674  0.47223055    -0.23500
H1084       H  0.75281064  0.40562357  0.50395008     0.15500
H1085       H  0.72639665  0.47924740  0.40025089     0.15500
C1086       C  0.78734316  0.50070038  0.43079633    -0.23400
H1087       H  0.70326805  0.36838324  0.49509745     0.05700
H1088       H  0.69039837  0.36417195  0.45030425     0.08900
H1089       H  0.66567328  0.39153058  0.47932311     0.08900
H1090       H  0.81425222  0.49145251  0.42465915     0.08900
H1091       H  0.78923535  0.51989673  0.45218472     0.08900
H1092       H  0.77725730  0.51449989  0.40728185     0.05700
C1093       C  0.47333927  0.58221469  0.23127579    -0.20100
C1094       C  0.45725016  0.55194348  0.21672072    -0.06700
C1095       C  0.42613071  0.53732737  0.23289865     0.14200
C1096       C  0.41353943  0.55144371  0.26401836    -0.20200
C1097       C  0.43037266  0.58067982  0.27944683    -0.06700
C1098       C  0.45985619  0.59717617  0.26198255     0.14200
C1099       C  0.47828172  0.62930918  0.27661666    -0.23500
H1100       H  0.49788832  0.59282629  0.21983488     0.15500
H1101       H  0.39002242  0.53943621  0.27631649     0.15500
C1102       C  0.40666938  0.50536810  0.21898471    -0.23400
H1103       H  0.50182920  0.63785832  0.26067499     0.05700
H1104       H  0.48733938  0.62361903  0.30359218     0.08900
H1105       H  0.45981230  0.65135511  0.27695605     0.08900
H1106       H  0.40768475  0.48348074  0.23841913     0.08900
H1107       H  0.41796657  0.49647491  0.19402681     0.08900
H1108       H  0.37847138  0.51152397  0.21424296     0.05700
C1109       C  0.57159587  0.44814136  0.27708295    -0.20100
C1110       C  0.54825825  0.42324937  0.29320625    -0.06700
C1111       C  0.51639913  0.41345883  0.27594143     0.14200
C1112       C  0.50863329  0.42898314  0.24335787    -0.20200
C1113       C  0.53228555  0.45353452  0.22704731    -0.06700
C1114       C  0.56442140  0.46267183  0.24396248     0.14200
C1115       C  0.59096925  0.48817514  0.22708253    -0.23500
H1116       H  0.59607819  0.45550180  0.28998957     0.15500
H1117       H  0.48311590  0.42338869  0.23136811     0.15500
C1118       C  0.48972618  0.38793025  0.29265077    -0.23400
H1119       H  0.61504228  0.49204413  0.24338223     0.05700
H1120       H  0.57892725  0.51407686  0.22297203     0.08900
H1121       H  0.59937334  0.47792015  0.20149486     0.08900
H1122       H  0.48180465  0.39763447  0.31860787     0.08900
H1123       H  0.50125961  0.36170685  0.29585486     0.08900
H1124       H  0.46538821  0.38476360  0.27659829     0.05700
C1125       C  0.78990194  0.08997369  0.19227584    -0.20100
C1126       C  0.78380729  0.11948989  0.17081972    -0.06700
C1127       C  0.81033983  0.14677675  0.16860282     0.14200
C1128       C  0.83816225  0.14687514  0.19287301    -0.20200
C1129       C  0.83830795  0.12171380  0.21991947    -0.06700
C1130       C  0.81637016  0.09126964  0.21769975     0.14200
C1131       C  0.81914981  0.06153806  0.24389196    -0.23500
H1132       H  0.77103598  0.06784119  0.19243878     0.15500
H1133       H  0.85651051  0.16936045  0.19390551     0.15500
C1134       C  0.80780367  0.17760627  0.14367512    -0.23400
H1135       H  0.80018061  0.03947264  0.23812480     0.05700
H1136       H  0.81331159  0.07064069  0.27058821     0.08900
H1137       H  0.84645346  0.05146490  0.24321118     0.08900
H1138       H  0.78444681  0.19322161  0.15028496     0.08900
H1139       H  0.80556161  0.16812534  0.11652263     0.08900
H1140       H  0.83169122  0.19546221  0.14492650     0.05700
C1141       C  0.67616597  0.23564473  0.30210490    -0.20100
C1142       C  0.64239811  0.24705544  0.31099185    -0.06700
C1143       C  0.61178457  0.22651973  0.30323910     0.14200
C1144       C  0.61520067  0.19826563  0.28104909    -0.20200
C1145       C  0.64842502  0.19093631  0.26687325    -0.06700
C1146       C  0.67958909  0.20758069  0.27963464     0.14200
C1147       C  0.71595656  0.19844817  0.26671549    -0.23500
H1148       H  0.69960705  0.25096071  0.30955861     0.15500
H1149       H  0.59158933  0.18428035  0.27185860     0.15500
C1150       C  0.57568311  0.23505322  0.31729930    -0.23400
H1151       H  0.73725190  0.21430898  0.27950584     0.05700
H1152       H  0.71810997  0.20335358  0.23812496     0.08900
H1153       H  0.72061148  0.17037072  0.27259828     0.08900
H1154       H  0.56742107  0.26086782  0.30702983     0.08900
H1155       H  0.57656888  0.23566574  0.34624705     0.08900
H1156       H  0.55508957  0.21507421  0.30978568     0.05700
C1157       C  0.30353261  0.89308700  0.26535583    -0.20100
C1158       C  0.28221789  0.90133970  0.23640599    -0.06700
C1159       C  0.24614503  0.90834142  0.24138555     0.14200
C1160       C  0.23164928  0.90394248  0.27478466    -0.20200
C1161       C  0.25201459  0.89152786  0.30289467    -0.06700
C1162       C  0.28868420  0.88749118  0.29856975     0.14200
C1163       C  0.31201990  0.87701803  0.32854933    -0.23500
H1164       H  0.33150527  0.88833041  0.26157430     0.15500
H1165       H  0.20343160  0.90763918  0.27823084     0.15500
C1166       C  0.22265736  0.91968008  0.21176409    -0.23400
H1167       H  0.34045225  0.87700350  0.32069919     0.05700
H1168       H  0.30436689  0.85018023  0.33810062     0.08900
H1169       H  0.30936343  0.89585917  0.35009655     0.08900
H1170       H  0.21892900  0.89818661  0.19287408     0.08900
H1171       H  0.23477152  0.94323926  0.19833607     0.08900
H1172       H  0.19584910  0.92648014  0.22118134     0.05700
C1173       C  0.29917108  0.76862118  0.25902394    -0.20100
C1174       C  0.30765222  0.75872423  0.22511055    -0.06700
C1175       C  0.30761731  0.72311701  0.21609921     0.14200
C1176       C  0.30373178  0.69773104  0.24264912    -0.20200
C1177       C  0.29998748  0.70786792  0.27735670    -0.06700
C1178       C  0.29544986  0.74325207  0.28558632     0.14200
C1179       C  0.28895254  0.75421839  0.32258372    -0.23500
H1180       H  0.29813353  0.79622823  0.26515458     0.15500
H1181       H  0.30662446  0.67025603  0.23677193     0.15500
C1182       C  0.31311110  0.71218159  0.17890882    -0.23400
H1183       H  0.28569842  0.78298734  0.32426041     0.05700
H1184       H  0.31165212  0.74702473  0.33931742     0.08900
H1185       H  0.26432017  0.74077889  0.33279095     0.08900
H1186       H  0.33940772  0.72223544  0.16916675     0.08900
H1187       H  0.29193869  0.72300545  0.16220445     0.08900
H1188       H  0.31202907  0.68316702  0.17653002     0.05700
C1189       C  0.26483932  0.11483417  0.75592407    -0.20100
C1190       C  0.29543355  0.13581848  0.74871488    -0.06700
C1191       C  0.29421584  0.16364302  0.72391086     0.14200
C1192       C  0.26191377  0.17034943  0.70778499    -0.20200
C1193       C  0.23135528  0.14975872  0.71573546    -0.06700
C1194       C  0.23269854  0.12153685  0.73991241     0.14200
C1195       C  0.20015292  0.09927250  0.75007445    -0.23500
H1196       H  0.26553831  0.09400051  0.77550198     0.15500
H1197       H  0.26066589  0.19116990  0.68821874     0.15500
C1198       C  0.32677456  0.18562777  0.71354643    -0.23400
H1199       H  0.20572336  0.08067069  0.77183921     0.05700
H1200       H  0.19082265  0.08335783  0.72775938     0.08900
H1201       H  0.17861751  0.11632514  0.75876528     0.08900
H1202       H  0.34825841  0.16830416  0.70528915     0.08900
H1203       H  0.33603701  0.20195206  0.73556360     0.08900
H1204       H  0.32127585  0.20382804  0.69142375     0.05700
C1205       C  0.32098017  0.25610329  0.79090581    -0.20100
C1206       C  0.35279490  0.25563664  0.80991349    -0.06700
C1207       C  0.38157065  0.27829919  0.80011041     0.14200
C1208       C  0.37940119  0.29758010  0.76900132    -0.20200
C1209       C  0.34926268  0.29467543  0.74763039    -0.06700
C1210       C  0.31882509  0.27534827  0.75962397     0.14200
C1211       C  0.28490185  0.27312666  0.73891853    -0.23500
H1212       H  0.29871245  0.23896162  0.79885409     0.15500
H1213       H  0.40194585  0.31419480  0.76072604     0.15500
C1214       C  0.41464128  0.28202078  0.82202722    -0.23400
H1215       H  0.26453923  0.25542589  0.75175349     0.05700
H1216       H  0.29026311  0.26278125  0.71258638     0.08900
H1217       H  0.27352943  0.29953065  0.73647526     0.08900
H1218       H  0.42948459  0.25742472  0.82230813     0.08900
H1219       H  0.40724557  0.28870079  0.84913036     0.08900
H1220       H  0.43299716  0.30320615  0.81171543     0.05700
C1221       C  0.43854999  0.02690787  0.74807669    -0.20100
C1222       C  0.46141621  0.04388263  0.72331989    -0.06700
C1223       C  0.47142219  0.07947006  0.72858308     0.14200
C1224       C  0.45944832  0.09643648  0.75858497    -0.20200
C1225       C  0.43799234  0.07899249  0.78426834    -0.06700
C1226       C  0.42696778  0.04372651  0.77836837     0.14200
C1227       C  0.40266741  0.02362248  0.80351182    -0.23500
H1228       H  0.43135352  0.99942140  0.74457897     0.15500
H1229       H  0.46729257  0.12377945  0.76200979     0.15500
C1230       C  0.49566758  0.10020055  0.70387859    -0.23400
H1231       H  0.39632893  0.99661474  0.79447493     0.05700
H1232       H  0.37725299  0.03727746  0.80621043     0.08900
H1233       H  0.41563316  0.02136338  0.82936398     0.08900
H1234       H  0.50416327  0.08498705  0.68119425     0.08900
H1235       H  0.48173491  0.12346668  0.69379139     0.08900
H1236       H  0.51987325  0.10929700  0.71796904     0.05700
C1237       C  0.72751790  0.95597280  0.74900854    -0.20100
C1238       C  0.69714043  0.93397902  0.74485184    -0.06700
C1239       C  0.68528210  0.92685198  0.71053324     0.14200
C1240       C  0.70855440  0.93440893  0.68252470    -0.20200
C1241       C  0.74304960  0.94799455  0.68846084    -0.06700
C1242       C  0.75109822  0.96260287  0.72114983     0.14200
C1243       C  0.78655143  0.98047597  0.72816533    -0.23500
H1244       H  0.73545191  0.96383854  0.77495205     0.15500
H1245       H  0.70189602  0.92475438  0.65683440     0.15500
C1246       C  0.65013267  0.90838535  0.70311455    -0.23400
H1247       H  0.78800094  0.99093806  0.75500562     0.05700
H1248       H  0.79109938  0.00278038  0.70948042     0.08900
H1249       H  0.80795748  0.96142209  0.72540413     0.08900
H1250       H  0.62833191  0.92227791  0.71597638     0.08900
H1251       H  0.65027651  0.88067058  0.71241787     0.08900
H1252       H  0.64449338  0.90802023  0.67469614     0.05700
C1253       C  0.68700935  0.72695078  0.79034626    -0.20100
C1254       C  0.68960536  0.76228023  0.77967028    -0.06700
C1255       C  0.70602916  0.77221260  0.74764577     0.14200
C1256       C  0.71430780  0.74602625  0.72470180    -0.20200
C1257       C  0.70558962  0.71095385  0.73289720    -0.06700
C1258       C  0.69460765  0.70075300  0.76682738     0.14200
C1259       C  0.68702081  0.66280371  0.77683125    -0.23500
H1260       H  0.67596548  0.71986263  0.81577794     0.15500
H1261       H  0.72287680  0.75330074  0.69844214     0.15500
C1262       C  0.71375588  0.80978024  0.73596209    -0.23400
H1263       H  0.67838091  0.65978650  0.80450654     0.05700
H1264       H  0.71144465  0.64772098  0.77335899     0.08900
H1265       H  0.66555535  0.65151524  0.76024328     0.08900
H1266       H  0.70773941  0.82922833  0.75607319     0.08900
H1267       H  0.69804540  0.81580881  0.71229295     0.08900
H1268       H  0.74244909  0.81330372  0.72944696     0.05700
C1269       C  0.54553327  0.89793270  0.76080461    -0.20100
C1270       C  0.56717900  0.91481213  0.78583917    -0.06700
C1271       C  0.57957339  0.94970202  0.77853896     0.14200
C1272       C  0.56889339  0.96682125  0.74763634    -0.20200
C1273       C  0.54551015  0.95060691  0.72374332    -0.06700
C1274       C  0.53429303  0.91532517  0.73027411     0.14200
C1275       C  0.50934483  0.89551668  0.70645519    -0.23500
H1276       H  0.53674701  0.87085010  0.76530795     0.15500
H1277       H  0.57701158  0.99408328  0.74308343     0.15500
C1278       C  0.60419379  0.96923135  0.80289367    -0.23400
H1279       H  0.48478388  0.88736380  0.72101227     0.05700
H1280       H  0.50156010  0.91107803  0.68327056     0.08900
H1281       H  0.52235412  0.87170355  0.69710622     0.08900
H1282       H  0.62901912  0.95475783  0.80640446     0.08900
H1283       H  0.59094509  0.97226275  0.82854042     0.08900
H1284       H  0.61167166  0.99591748  0.79264943     0.05700
C1285       C  0.75886711  0.02598006  0.09092543    -0.20100
C1286       C  0.78315232  0.03960175  0.06574656    -0.06700
C1287       C  0.77662265  0.07229351  0.04976211     0.14200
C1288       C  0.74441912  0.08853405  0.05635825    -0.20200
C1289       C  0.71815381  0.07316904  0.07882590    -0.06700
C1290       C  0.72658099  0.04225113  0.09777079     0.14200
C1291       C  0.70184913  0.02578669  0.12488691    -0.23500
H1292       H  0.76381483  0.00069379  0.10299674     0.15500
H1293       H  0.73946256  0.11311478  0.04293137     0.15500
C1294       C  0.80270048  0.08899987  0.02396907    -0.23400
H1295       H  0.71315865  0.00214295  0.13730847     0.05700
H1296       H  0.67633438  0.01753759  0.11263525     0.08900
H1297       H  0.69700515  0.04482103  0.14583195     0.08900
H1298       H  0.80614329  0.07159934  0.00137511     0.08900
H1299       H  0.82875194  0.09356382  0.03685442     0.08900
H1300       H  0.79364647  0.11466396  0.01389061     0.05700
C1301       C  0.75271984  0.92567356  0.98841939    -0.20100
C1302       C  0.77438118  0.95430723  0.97655372    -0.06700
C1303       C  0.76382995  0.97350415  0.94676454     0.14200
C1304       C  0.73261508  0.96330028  0.92924445    -0.20200
C1305       C  0.71150346  0.93394508  0.94023860    -0.06700
C1306       C  0.72183917  0.91488328  0.97026740     0.14200
C1307       C  0.70111707  0.88240644  0.98236441    -0.23500
H1308       H  0.75979460  0.91204614  0.01232561     0.15500
H1309       H  0.72562682  0.97717329  0.90542863     0.15500
C1310       C  0.78534551  0.00517374  0.93369500    -0.23400
H1311       H  0.71273418  0.87064928  0.00626085     0.05700
H1312       H  0.70110801  0.86239780  0.96167737     0.08900
H1313       H  0.67331732  0.88913114  0.98830941     0.08900
H1314       H  0.81271283  0.99742192  0.92721158     0.08900
H1315       H  0.78657331  0.02551690  0.95405815     0.08900
H1316       H  0.77361242  0.01698985  0.90988729     0.05700
C1317       C  0.27362650  0.95979195  0.09188280    -0.20100
C1318       C  0.28957353  0.93241203  0.07378197    -0.06700
C1319       C  0.27038207  0.91710306  0.04554109     0.14200
C1320       C  0.23728353  0.93020391  0.03595723    -0.20200
C1321       C  0.22261525  0.95866348  0.05287207    -0.06700
C1322       C  0.24075292  0.97309186  0.08169379     0.14200
C1323       C  0.22655163  0.00341767  0.10147774    -0.23500
H1324       H  0.28688278  0.97122922  0.11417707     0.15500
H1325       H  0.22392099  0.92000584  0.01310552     0.15500
C1326       C  0.28423541  0.88735402  0.02450451    -0.23400
H1327       H  0.22334110  0.99580091  0.12944656     0.05700
H1328       H  0.20030641  0.01144716  0.09173158     0.08900
H1329       H  0.24550221  0.02630933  0.09920783     0.08900
H1330       H  0.31033924  0.89521240  0.01267100     0.08900
H1331       H  0.26611278  0.87996977  0.00286186     0.08900
H1332       H  0.28670206  0.86364479  0.04133754     0.05700
C1333       C  0.23411798  0.01364579  0.92688879    -0.20100
C1334       C  0.22152257  0.03558262  0.95296473    -0.06700
C1335       C  0.24155671  0.06652120  0.96055498     0.14200
C1336       C  0.27394206  0.07417974  0.94295427    -0.20200
C1337       C  0.28733421  0.05154332  0.91783997    -0.06700
C1338       C  0.26651120  0.02117442  0.90920070     0.14200
C1339       C  0.27906932  0.99549240  0.88271889    -0.23500
H1340       H  0.21972279  0.98906865  0.92215941     0.15500
H1341       H  0.28882281  0.09819542  0.94877566     0.15500
C1342       C  0.22930160  0.09068160  0.98851413    -0.23400
H1343       H  0.26110804  0.97181559  0.88156084     0.05700
H1344       H  0.30598381  0.98677999  0.88974590     0.08900
H1345       H  0.27972658  0.00777824  0.85627314     0.08900
H1346       H  0.22777380  0.07656534  0.01408061     0.08900
H1347       H  0.20260754  0.10019950  0.98179146     0.08900
H1348       H  0.24774772  0.11380204  0.99132674     0.05700
C1349       C  0.53228164  0.05528960  0.26055180    -0.20100
C1350       C  0.54964349  0.03429573  0.28528134    -0.06700
C1351       C  0.58565575  0.02713723  0.27971229     0.14200
C1352       C  0.60317068  0.04049994  0.24953175    -0.20200
C1353       C  0.58571607  0.06082812  0.22406042    -0.06700
C1354       C  0.54969220  0.06871772  0.23022114     0.14200
C1355       C  0.52924884  0.09129609  0.20529293    -0.23500
H1356       H  0.50426587  0.05984407  0.26431271     0.15500
H1357       H  0.63083343  0.03454202  0.24570983     0.15500
C1358       C  0.60524340  0.00412579  0.30494624    -0.23400
H1359       H  0.50167380  0.09502348  0.21458371     0.05700
H1360       H  0.52755527  0.07870363  0.17943529     0.08900
H1361       H  0.54255921  0.11765447  0.20258666     0.08900
H1362       H  0.59200444  0.97766944  0.30664800     0.08900
H1363       H  0.60537979  0.01602204  0.33117665     0.08900
H1364       H  0.63325147  0.00092093  0.29673395     0.05700
C1365       C  0.47945220  0.90846036  0.27881941    -0.20100
C1366       C  0.46291605  0.93766092  0.29279527    -0.06700
C1367       C  0.43135663  0.94920767  0.27734009     0.14200
C1368       C  0.41829696  0.93282915  0.24724964    -0.20200
C1369       C  0.43585705  0.90491174  0.23201262    -0.06700
C1370       C  0.46605053  0.89163585  0.24887764     0.14200
C1371       C  0.48535859  0.86115377  0.23434818    -0.23500
H1372       H  0.50427252  0.90030018  0.29003029     0.15500
H1373       H  0.39426608  0.94214858  0.23531332     0.15500
C1374       C  0.41244618  0.98008658  0.29166405    -0.23400
H1375       H  0.50947553  0.85542437  0.24971438     0.05700
H1376       H  0.49370161  0.86719347  0.20701052     0.08900
H1377       H  0.46776676  0.83720304  0.23505767     0.08900
H1378       H  0.43011832  0.00399284  0.29030177     0.08900
H1379       H  0.40479923  0.97453604  0.31927777     0.08900
H1380       H  0.38795561  0.98555511  0.27677891     0.05700
C1381       C  0.59738860  0.74722115  0.94370943    -0.20100
C1382       C  0.57978907  0.77414205  0.92565899    -0.06700
C1383       C  0.54295622  0.76951133  0.91967383     0.14200
C1384       C  0.52477321  0.73910675  0.93302401    -0.20200
C1385       C  0.54228049  0.71301594  0.95241556    -0.06700
C1386       C  0.57926851  0.71703170  0.95711863     0.14200
C1387       C  0.59957873  0.69033283  0.97763828    -0.23500
H1388       H  0.62580868  0.74998764  0.94777469     0.15500
H1389       H  0.49622038  0.73641759  0.92983843     0.15500
C1390       C  0.52280706  0.79613393  0.89896464    -0.23400
H1391       H  0.62822640  0.69796706  0.97950269     0.05700
H1392       H  0.59750953  0.66457318  0.96465173     0.08900
H1393       H  0.58868979  0.68764160  0.00456017     0.08900
H1394       H  0.53451695  0.79932955  0.87240444     0.08900
H1395       H  0.52405573  0.82174010  0.91231020     0.08900
H1396       H  0.49437097  0.78799472  0.89617202     0.05700
C1397       C  0.43112803  0.72922775  0.02976492    -0.20100
C1398       C  0.45580756  0.70793114  0.04643074    -0.06700
C1399       C  0.46661756  0.71624194  0.08059368     0.14200
C1400       C  0.45331037  0.74609876  0.09678144    -0.20200
C1401       C  0.43040369  0.76887122  0.07916404    -0.06700
C1402       C  0.41879163  0.75970716  0.04516747     0.14200
C1403       C  0.39341562  0.78160173  0.02451850    -0.23500
H1404       H  0.42350895  0.72325705  0.00320122     0.15500
H1405       H  0.46162905  0.75218498  0.12308606     0.15500
C1406       C  0.49337489  0.69444821  0.09932843    -0.23400
H1407       H  0.38686675  0.76987494  0.99891277     0.05700
H1408       H  0.40548549  0.80812921  0.01918813     0.08900
H1409       H  0.36817008  0.78367011  0.03912032     0.08900
H1410       H  0.51865348  0.69482258  0.08427425     0.08900
H1411       H  0.48290590  0.66696298  0.10214991     0.08900
H1412       H  0.49918472  0.70450466  0.12578973     0.05700
C1413       C  0.52844220  0.25775747  0.08186018    -0.20100
C1414       C  0.54760299  0.27001140  0.05234152    -0.06700
C1415       C  0.57715735  0.25091305  0.04140700     0.14200
C1416       C  0.58594084  0.21966952  0.05930184    -0.20200
C1417       C  0.56591284  0.20665737  0.08812745    -0.06700
C1418       C  0.53717726  0.22667517  0.09991462     0.14200
C1419       C  0.51429736  0.21464992  0.13053908    -0.23500
H1420       H  0.50498222  0.27148288  0.08950949     0.15500
H1421       H  0.60884919  0.20552065  0.05090339     0.15500
C1422       C  0.59901209  0.26327335  0.01027666    -0.23400
H1423       H  0.49122047  0.23163972  0.13404310     0.05700
H1424       H  0.52985943  0.21569611  0.15500839     0.08900
H1425       H  0.50388298  0.18744891  0.12639896     0.08900
H1426       H  0.61002821  0.29017766  0.01486727     0.08900
H1427       H  0.58227786  0.26360313  0.98651915     0.08900
H1428       H  0.62155865  0.24592447  0.00546950     0.05700
C1429       C  0.42716249  0.25833193  0.97897349    -0.20100
C1430       C  0.45902273  0.26904010  0.96222458    -0.06700
C1431       C  0.47107751  0.24907696  0.93394082     0.14200
C1432       C  0.45124424  0.21911109  0.92335664    -0.20200
C1433       C  0.41941809  0.20822164  0.94024870    -0.06700
C1434       C  0.40722904  0.22842226  0.96844493     0.14200
C1435       C  0.37407295  0.21778045  0.98878396    -0.23500
H1436       H  0.41879183  0.27248911  0.00170187     0.15500
H1437       H  0.46038142  0.20461440  0.90114943     0.15500
C1438       C  0.50515014  0.25852265  0.91471896    -0.23400
H1439       H  0.37056922  0.23445004  0.01194375     0.05700
H1440       H  0.37568998  0.19015294  0.99813922     0.08900
H1441       H  0.35018849  0.22061995  0.97231780     0.08900
H1442       H  0.52386451  0.23680628  0.91767769     0.08900
H1443       H  0.51832134  0.28292755  0.92434751     0.08900
H1444       H  0.49944449  0.26262940  0.88656797     0.05700
C1445       C  0.21226141  0.75028814  0.21545912    -0.20100
C1446       C  0.20937624  0.71474350  0.22507425    -0.06700
C1447       C  0.20592485  0.70453062  0.26034158     0.14200
C1448       C  0.19987524  0.73013910  0.28489947    -0.20200
C1449       C  0.19694446  0.76543160  0.27458984    -0.06700
C1450       C  0.20638481  0.77616432  0.24011724     0.14200
C1451       C  0.20781285  0.81416207  0.22848891    -0.23500
H1452       H  0.21557841  0.75759199  0.18813870     0.15500
H1453       H  0.19479427  0.72222104  0.31182104     0.15500
C1454       C  0.20558324  0.66636900  0.27149747    -0.23400
H1455       H  0.21514435  0.81727273  0.20046453     0.05700
H1456       H  0.22822785  0.82882406  0.24375991     0.08900
H1457       H  0.18149216  0.82582194  0.23225212     0.08900
H1458       H  0.23081746  0.65461744  0.26334815     0.08900
H1459       H  0.18297242  0.65184121  0.25924569     0.08900
H1460       H  0.20290572  0.66306359  0.30025632     0.05700
C1461       C  0.22024688  0.73907082  0.06745692    -0.20100
C1462       C  0.23996896  0.70846663  0.07062010    -0.06700
C1463       C  0.27741035  0.71123835  0.06936818     0.14200
C1464       C  0.29386913  0.74454568  0.07100056    -0.20200
C1465       C  0.27376896  0.77472532  0.07470012    -0.06700
C1466       C  0.23667219  0.77231250  0.07026238     0.14200
C1467       C  0.21413797  0.80425677  0.06974643    -0.23500
H1468       H  0.19147422  0.73711712  0.06687107     0.15500
H1469       H  0.32257107  0.74646195  0.07304349     0.15500
C1470       C  0.30022214  0.67950901  0.06776433    -0.23400
H1471       H  0.18612715  0.79743835  0.06296127     0.05700
H1472       H  0.22467944  0.82355760  0.04993588     0.08900
H1473       H  0.21384197  0.81647459  0.09577269     0.08900
H1474       H  0.29124727  0.66247817  0.04608333     0.08900
H1475       H  0.29901640  0.66443106  0.09275659     0.08900
H1476       H  0.32858717  0.68716057  0.06298004     0.05700
C1477       C  0.22468301  0.54188621  0.24515510    -0.20100
C1478       C  0.24359389  0.55507373  0.21565820    -0.06700
C1479       C  0.28114089  0.55793002  0.21707334     0.14200
C1480       C  0.29770859  0.55428146  0.24948901    -0.20200
C1481       C  0.27747126  0.54888674  0.28010096    -0.06700
C1482       C  0.24117316  0.53922139  0.27762116     0.14200
C1483       C  0.21956806  0.52731007  0.30915042    -0.23500
H1484       H  0.19617623  0.53721533  0.24387907     0.15500
H1485       H  0.32602184  0.56009593  0.25132329     0.15500
C1486       C  0.30388638  0.56657343  0.18536056    -0.23400
H1487       H  0.19221547  0.51851316  0.30185204     0.05700
H1488       H  0.21711210  0.54887173  0.32792693     0.08900
H1489       H  0.23249536  0.50484248  0.32207128     0.08900
H1490       H  0.30064943  0.59417883  0.17671279     0.08900
H1491       H  0.29661106  0.54849384  0.16394443     0.08900
H1492       H  0.33254915  0.56358991  0.19099419     0.05700
C1493       C  0.87175431  0.30572394  0.28224105    -0.20100
C1494       C  0.85155216  0.29056016  0.25536388    -0.06700
C1495       C  0.84872721  0.25390528  0.25264903     0.14200
C1496       C  0.87088521  0.23348042  0.27311949    -0.20200
C1497       C  0.89481284  0.24900307  0.29678317    -0.06700
C1498       C  0.89313993  0.28508958  0.30357238     0.14200
C1499       C  0.91548670  0.30204802  0.33150276    -0.23500
H1500       H  0.87326568  0.33407263  0.28440603     0.15500
H1501       H  0.87073934  0.20540140  0.26943468     0.15500
C1502       C  0.82477038  0.23670517  0.22610432    -0.23400
H1503       H  0.91138359  0.33071589  0.33268223     0.05700
H1504       H  0.94406727  0.29807057  0.32625487     0.08900
H1505       H  0.90816234  0.29021351  0.35734375     0.08900
H1506       H  0.83411218  0.24378840  0.19929654     0.08900
H1507       H  0.79718508  0.24542592  0.22948352     0.08900
H1508       H  0.82407594  0.20775100  0.22926369     0.05700
C1509       C  0.70331958  0.31967115  0.11060788    -0.20100
C1510       C  0.73357142  0.31396807  0.09027932    -0.06700
C1511       C  0.73158917  0.28933945  0.06334129     0.14200
C1512       C  0.70259159  0.26547515  0.06331771    -0.20200
C1513       C  0.67775843  0.26502388  0.09090407    -0.06700
C1514       C  0.67445118  0.29577774  0.11037863     0.14200
C1515       C  0.64301689  0.30228036  0.13349227    -0.23500
H1516       H  0.70389006  0.34045959  0.12959202     0.15500
H1517       H  0.70312882  0.24352621  0.04568679     0.15500
C1518       C  0.76104308  0.28458188  0.03729254    -0.23400
H1519       H  0.63344059  0.32904112  0.12798984     0.05700
H1520       H  0.65088384  0.30040422  0.16133522     0.08900
H1521       H  0.62039421  0.28369111  0.12851007     0.08900
H1522       H  0.78271069  0.30476606  0.03904429     0.08900
H1523       H  0.75010578  0.28624353  0.01048251     0.08900
H1524       H  0.77250669  0.25837667  0.04131034     0.05700
C1525       C  0.69746657  0.40893914  0.18456671    -0.20100
C1526       C  0.72906657  0.42637797  0.19483644    -0.06700
C1527       C  0.72787313  0.45168125  0.22110747     0.14200
C1528       C  0.69660355  0.45384247  0.24076711    -0.20200
C1529       C  0.66823028  0.42928897  0.23610609    -0.06700
C1530       C  0.66653557  0.41078519  0.20465467     0.14200
C1531       C  0.63346740  0.39100806  0.19323600    -0.23500
H1532       H  0.69771845  0.39149413  0.16255388     0.15500
H1533       H  0.69695862  0.47043480  0.26344569     0.15500
C1534       C  0.76041147  0.47316096  0.23128443    -0.23400
H1535       H  0.62660894  0.39952147  0.16631105     0.05700
H1536       H  0.61036194  0.39626888  0.21022300     0.08900
H1537       H  0.63806958  0.36239921  0.19349685     0.08900
H1538       H  0.77009974  0.48932102  0.20858478     0.08900
H1539       H  0.78163029  0.45557539  0.24006572     0.08900
H1540       H  0.75473347  0.49116391  0.25293288     0.05700
C1541       C  0.83207204  0.74423835  0.75201898    -0.20100
C1542       C  0.85231524  0.75513526  0.78062008    -0.06700
C1543       C  0.86433613  0.79010225  0.78381480     0.14200
C1544       C  0.85651171  0.81381037  0.75709440    -0.20200
C1545       C  0.83748858  0.80264155  0.72762323    -0.06700
C1546       C  0.82478804  0.76766208  0.72500858     0.14200
C1547       C  0.80614190  0.75440900  0.69285913    -0.23500
H1548       H  0.82313539  0.71695111  0.75027574     0.15500
H1549       H  0.86657889  0.84076469  0.75836920     0.15500
C1550       C  0.88610025  0.80187932  0.81458146    -0.23400
H1551       H  0.79806559  0.72617352  0.69551282     0.05700
H1552       H  0.82409702  0.75766385  0.66987999     0.08900
H1553       H  0.78195337  0.76946028  0.68813933     0.08900
H1554       H  0.91083857  0.78689672  0.81595184     0.08900
H1555       H  0.87055295  0.79718904  0.83900518     0.08900
H1556       H  0.89364108  0.83027880  0.81260474     0.05700
C1557       C  0.73975811  0.76276939  0.89752432    -0.20100
C1558       C  0.74843742  0.78722443  0.87053082    -0.06700
C1559       C  0.76144969  0.77471328  0.83840344     0.14200
C1560       C  0.76388861  0.73854252  0.83391445    -0.20200
C1561       C  0.75633604  0.71458540  0.86127245    -0.06700
C1562       C  0.74317293  0.72674738  0.89317319     0.14200
C1563       C  0.73216637  0.70230109  0.92297986    -0.23500
H1564       H  0.72903610  0.77158926  0.92203067     0.15500
H1565       H  0.77430475  0.72909077  0.80953613     0.15500
C1566       C  0.77330070  0.79880877  0.80865865    -0.23400
H1567       H  0.74952257  0.70735523  0.94581247     0.05700
H1568       H  0.73350262  0.67423448  0.91610972     0.08900
H1569       H  0.70421547  0.70698742  0.93044737     0.08900
H1570       H  0.79469575  0.81726453  0.81753769     0.08900
H1571       H  0.75077662  0.81353548  0.79840868     0.08900
H1572       H  0.78354740  0.78410539  0.78635213     0.05700
C1573       C  0.78929288  0.57331380  0.68108511    -0.20100
C1574       C  0.78609298  0.60265447  0.65868072    -0.06700
C1575       C  0.81003987  0.63181675  0.66287246     0.14200
C1576       C  0.83109664  0.63352534  0.69304593    -0.20200
C1577       C  0.82825169  0.60719592  0.71908414    -0.06700
C1578       C  0.80972840  0.57539513  0.71156525     0.14200
C1579       C  0.81052808  0.54403974  0.73601274    -0.23500
H1580       H  0.77239374  0.55015090  0.67701391     0.15500
H1581       H  0.84644522  0.65744545  0.69820129     0.15500
C1582       C  0.81098635  0.66291840  0.63797291    -0.23400
H1583       H  0.79605749  0.52089476  0.72507085     0.05700
H1584       H  0.79789657  0.54970739  0.76137093     0.08900
H1585       H  0.83849243  0.53687530  0.74027929     0.08900
H1586       H  0.78562018  0.67682419  0.63926685     0.08900
H1587       H  0.81571228  0.65396777  0.61098080     0.08900
H1588       H  0.83263498  0.68221086  0.64443458     0.05700
C1589       C  0.07023574  0.75804918  0.03588517    -0.20100
C1590       C  0.04741563  0.77805285  0.05594568    -0.06700
C1591       C  0.04219623  0.76886719  0.09146720     0.14200
C1592       C  0.05865432  0.73909920  0.10559337    -0.20200
C1593       C  0.07957257  0.71749302  0.08483530    -0.06700
C1594       C  0.08609966  0.72795691  0.04953659     0.14200
C1595       C  0.10979728  0.70792130  0.02573985    -0.23500
H1596       H  0.07376526  0.76484410  0.00845149     0.15500
H1597       H  0.05434829  0.73216677  0.13286746     0.15500
C1598       C  0.01821965  0.78973054  0.11406547    -0.23400
H1599       H  0.11276304  0.72079659  0.99960938     0.05700
H1600       H  0.09827074  0.68112908  0.02171784     0.08900
H1601       H  0.13672455  0.70640222  0.03716480     0.08900
H1602       H  0.99089073  0.78900602  0.10331134     0.08900
H1603       H  0.02836618  0.81739421  0.11483094     0.08900
H1604       H  0.01692218  0.77915781  0.14125174     0.05700
C1605       C  0.92172748  0.76057364  0.98362502    -0.20100
C1606       C  0.95368648  0.77529749  0.97010146    -0.06700
C1607       C  0.96923086  0.75961062  0.94070445     0.14200
C1608       C  0.95252927  0.72991520  0.92567879    -0.20200
C1609       C  0.92053244  0.71526397  0.93915701    -0.06700
C1610       C  0.90478760  0.73116658  0.96830945     0.14200
C1611       C  0.87029494  0.71668140  0.98372461    -0.23500
H1612       H  0.91059850  0.77146284  0.00705167     0.15500
H1613       H  0.96396915  0.71889779  0.90245784     0.15500
C1614       C  0.00372446  0.77343386  0.92479586    -0.23400
H1615       H  0.86244179  0.73122319  0.00724598     0.05700
H1616       H  0.87314014  0.68871045  0.99142387     0.08900
H1617       H  0.84858322  0.71872565  0.96441084     0.08900
H1618       H  0.02387830  0.75291236  0.92662066     0.08900
H1619       H  0.01444642  0.79728120  0.93776059     0.08900
H1620       H  0.99951252  0.78032009  0.89688367     0.05700
C1621       C  0.04700458  0.26860647  0.70337849    -0.20100
C1622       C  0.07422001  0.27013784  0.67831262    -0.06700
C1623       C  0.09391347  0.30205425  0.67288373     0.14200
C1624       C  0.09293964  0.32762940  0.69858065    -0.20200
C1625       C  0.07272666  0.32120021  0.72897353    -0.06700
C1626       C  0.04557839  0.29464876  0.72860998     0.14200
C1627       C  0.01771248  0.29124891  0.75685101    -0.23500
H1628       H  0.02999863  0.24519299  0.70621385     0.15500
H1629       H  0.11210431  0.34950437  0.69729881     0.15500
C1630       C  0.11847545  0.30817287  0.64204218    -0.23400
H1631       H  0.99093692  0.29079432  0.74483687     0.05700
H1632       H  0.01932469  0.31371802  0.77489827     0.08900
H1633       H  0.02095503  0.26650680  0.77204786     0.08900
H1634       H  0.11602858  0.28671952  0.62289783     0.08900
H1635       H  0.14642642  0.31043250  0.65105766     0.08900
H1636       H  0.11170288  0.33290081  0.62826756     0.05700
C1637       C  0.21244520  0.16531234  0.83365211    -0.20100
C1638       C  0.22571258  0.15992833  0.86756882    -0.06700
C1639       C  0.21206452  0.17947461  0.89523018     0.14200
C1640       C  0.19257059  0.20894403  0.88729427    -0.20200
C1641       C  0.18511572  0.21809239  0.85260687    -0.06700
C1642       C  0.19258386  0.19478121  0.82568785     0.14200
C1643       C  0.18279392  0.20266189  0.78837795    -0.23500
H1644       H  0.22161891  0.14949178  0.81243180     0.15500
H1645       H  0.18479269  0.22597405  0.90819478     0.15500
C1646       C  0.21959766  0.17125275  0.93298307    -0.23400
H1647       H  0.19167125  0.18204141  0.77059128     0.05700
H1648       H  0.19547892  0.22806429  0.77966105     0.08900
H1649       H  0.15350597  0.20404371  0.78610895     0.08900
H1650       H  0.23619540  0.19280513  0.94428833     0.08900
H1651       H  0.23332912  0.14618993  0.93621799     0.08900
H1652       H  0.19417911  0.16854138  0.94774376     0.05700
C1653       C  0.30983660  0.39110747  0.75735272    -0.20100
C1654       C  0.29964024  0.41550272  0.73180602    -0.06700
C1655       C  0.26808716  0.43345351  0.73558833     0.14200
C1656       C  0.24469590  0.42278340  0.76219262    -0.20200
C1657       C  0.25148218  0.39318974  0.78338638    -0.06700
C1658       C  0.28568832  0.37909858  0.78309866     0.14200
C1659       C  0.29608032  0.34995606  0.80766103    -0.23500
H1660       H  0.33487871  0.37819378  0.75448990     0.15500
H1661       H  0.21944205  0.43546774  0.76408722     0.15500
C1662       C  0.25813982  0.46210434  0.71024263    -0.23400
H1663       H  0.32411336  0.34278305  0.80367091     0.05700
H1664       H  0.27898617  0.32614083  0.80338923     0.08900
H1665       H  0.29334955  0.35849478  0.83505630     0.08900
H1666       H  0.25458843  0.45130010  0.68375912     0.08900
H1667       H  0.27940069  0.48302038  0.70948898     0.08900
H1668       H  0.23288348  0.47417653  0.71784616     0.05700
C1669       C  0.92667432  0.53288290  0.75186156    -0.20100
C1670       C  0.95596112  0.54338604  0.73093231    -0.06700
C1671       C  0.97612556  0.57390011  0.73973755     0.14200
C1672       C  0.96721412  0.59232964  0.76972858    -0.20200
C1673       C  0.93907033  0.58082534  0.79180041    -0.06700
C1674       C  0.91797241  0.55104277  0.78215473     0.14200
C1675       C  0.88609307  0.53819697  0.80330506    -0.23500
H1676       H  0.91186962  0.50896570  0.74556404     0.15500
H1677       H  0.98280943  0.61572416  0.77618430     0.15500
C1678       C  0.00825971  0.58688493  0.71906314    -0.23400
H1679       H  0.87249203  0.51505686  0.79143788     0.05700
H1680       H  0.86656307  0.55926549  0.80504233     0.08900
H1681       H  0.89451568  0.53011619  0.82987539     0.08900
H1682       H  0.01338030  0.57098770  0.69579553     0.08900
H1683       H  0.03214722  0.58639042  0.73591048     0.08900
H1684       H  0.00437597  0.61429008  0.70995888     0.05700
C1685       C  0.03892037  0.41209363  0.78782604    -0.20100
C1686       C  0.07240345  0.42789775  0.79467320    -0.06700
C1687       C  0.08696925  0.45274453  0.76972307     0.14200
C1688       C  0.06756798  0.46127048  0.73970903    -0.20200
C1689       C  0.03379413  0.44637650  0.73360594    -0.06700
C1690       C  0.01950443  0.42108937  0.75781893     0.14200
C1691       C  0.98336737  0.40377701  0.75296627    -0.23500
H1692       H  0.02781315  0.39233562  0.80582249     0.15500
H1693       H  0.07782855  0.48164780  0.72189631     0.15500
C1694       C  0.12239484  0.47176765  0.77469362    -0.23400
H1695       H  0.98588559  0.37485231  0.75248998     0.05700
H1696       H  0.97071119  0.41201317  0.72820378     0.08900
H1697       H  0.96571602  0.41046283  0.77498423     0.08900
H1698       H  0.14435414  0.45327224  0.77235237     0.08900
H1699       H  0.12312013  0.48439874  0.80057544     0.08900
H1700       H  0.12735639  0.49272562  0.75458056     0.05700
C1701       C  0.94689719  0.26044149  0.10760399    -0.20100
C1702       C  0.91487243  0.27156849  0.09275438    -0.06700
C1703       C  0.89930549  0.25032027  0.06613945     0.14200
C1704       C  0.91735682  0.22106984  0.05367702    -0.20200
C1705       C  0.95036982  0.21163119  0.06702627    -0.06700
C1706       C  0.96472209  0.23112600  0.09501374     0.14200
C1707       C  0.99967010  0.22152491  0.11086392    -0.23500
H1708       H  0.95880265  0.27539263  0.12857484     0.15500
H1709       H  0.90662550  0.20665069  0.03175133     0.15500
C1710       C  0.86378732  0.25799759  0.05019497    -0.23400
H1711       H  0.00710222  0.23882929  0.13285743     0.05700
H1712       H  0.02113726  0.22393817  0.09095082     0.08900
H1713       H  0.99774933  0.19403390  0.12093594     0.08900
H1714       H  0.86529104  0.28362655  0.03598918     0.08900
H1715       H  0.84306811  0.25821883  0.07090183     0.08900
H1716       H  0.85531914  0.23781946  0.03110787     0.05700
C1717       C  0.07713543  0.26691870  0.95895483    -0.20100
C1718       C  0.06166941  0.27175034  0.92601787    -0.06700
C1719       C  0.03319826  0.24865187  0.91598485     0.14200
C1720       C  0.02110052  0.22173117  0.93904659    -0.20200
C1721       C  0.03656640  0.21698964  0.97182945    -0.06700
C1722       C  0.06488276  0.23987753  0.98195146     0.14200
C1723       C  0.08225312  0.23560005  0.01701920    -0.23500
H1724       H  0.09944977  0.28381676  0.96640770     0.15500
H1725       H  0.99856713  0.20492851  0.93195745     0.15500
C1726       C  0.01440375  0.25281600  0.88151775    -0.23400
H1727       H  0.10466606  0.25491295  0.02043927     0.05700
H1728       H  0.09276132  0.20882647  0.01958389     0.08900
H1729       H  0.06267140  0.23951040  0.03818437     0.08900
H1730       H  0.03220187  0.24632428  0.85959946     0.08900
H1731       H  0.00553814  0.28015443  0.87830012     0.08900
H1732       H  0.99056187  0.23496128  0.87984958     0.05700
C1733       C  0.03493635  0.58165420  0.28419364    -0.20100
C1734       C  0.04678768  0.55018599  0.29903511    -0.06700
C1735       C  0.07551110  0.53371695  0.28297551     0.14200
C1736       C  0.09036960  0.54785206  0.25182046    -0.20200
C1737       C  0.07763118  0.57849238  0.23600592    -0.06700
C1738       C  0.05028483  0.59632424  0.25327554     0.33800
C1739       C  0.03587514  0.62982076  0.23849328    -0.23500
H1740       H  0.01212860  0.59368253  0.29575211     0.15500
H1741       H  0.11221981  0.53475593  0.23970054     0.15500
C1742       C  0.08954614  0.50019983  0.29807733    -0.23400
H1743       H  0.01300469  0.63874585  0.25401177     0.05700
H1744       H  0.02672620  0.62568220  0.21133174     0.08900
H1745       H  0.05670532  0.65110605  0.23880825     0.08900
H1746       H  0.06844023  0.47916478  0.29821411     0.08900
H1747       H  0.09854860  0.50464576  0.32523314     0.08900
H1748       H  0.11240447  0.49093438  0.28276540     0.05700
C1749       C  0.92203005  0.47921761  0.28329211    -0.20100
C1750       C  0.95106104  0.46259896  0.29801293    -0.06700
C1751       C  0.96333738  0.43197634  0.28248366     0.14200
C1752       C  0.94680012  0.41914797  0.25217417    -0.20200
C1753       C  0.91844966  0.43651046  0.23627490    -0.06700
C1754       C  0.90556761  0.46689612  0.25279657     0.14200
C1755       C  0.87519066  0.48751676  0.23850499    -0.23500
H1756       H  0.91359669  0.50343606  0.29467387     0.15500
H1757       H  0.95654452  0.39556038  0.24063967     0.15500
C1758       C  0.99480166  0.41357475  0.29730631    -0.23400
H1759       H  0.87016329  0.51108034  0.25419335     0.05700
H1760       H  0.85031682  0.47104436  0.23906720     0.08900
H1761       H  0.88139465  0.49677147  0.21145803     0.08900
H1762       H  0.98910245  0.40537152  0.32476142     0.08900
H1763       H  0.01865073  0.43150383  0.29655786     0.08900
H1764       H  0.00093413  0.38982415  0.28234259     0.05700
C1765       C  0.23321588  0.52528572  0.08133761    -0.20100
C1766       C  0.21394762  0.55048841  0.06256571    -0.06700
C1767       C  0.22896763  0.56410420  0.03066775     0.14200
C1768       C  0.26141925  0.55154273  0.01853776    -0.20200
C1769       C  0.27975610  0.52568811  0.03683628    -0.06700
C1770       C  0.26559170  0.51279200  0.06893329     0.14200
C1771       C  0.28345404  0.48491574  0.09019598    -0.23500
H1772       H  0.22322263  0.51524205  0.10626600     0.15500
H1773       H  0.27165578  0.56042145  0.99327273     0.15500
C1774       C  0.21110266  0.59129681  0.00839695    -0.23400
H1775       H  0.28912669  0.49490403  0.11670710     0.05700
H1776       H  0.30896106  0.47715570  0.07858568     0.08900
H1777       H  0.26559026  0.46120297  0.09253275     0.08900
H1778       H  0.21078739  0.61667716  0.02210999     0.08900
H1779       H  0.18362549  0.58206411  0.00212766     0.08900
H1780       H  0.22535554  0.59639888  0.98327828     0.05700
C1781       C  0.26297132  0.45147433  0.92362817    -0.20100
C1782       C  0.28334756  0.43606082  0.95014561    -0.06700
C1783       C  0.27249975  0.40262290  0.96342542     0.14200
C1784       C  0.24121636  0.38603388  0.95091227    -0.20200
C1785       C  0.21972662  0.40220292  0.92574627    -0.06700
C1786       C  0.23154652  0.43495493  0.91113304     0.14200
C1787       C  0.21162389  0.45228727  0.88190402    -0.23500
H1788       H  0.27068609  0.47758226  0.91406313     0.15500
H1789       H  0.23319510  0.36029486  0.96122135     0.15500
C1790       C  0.29318917  0.38513841  0.99199724    -0.23400
H1791       H  0.22510060  0.47724715  0.87296585     0.05700
H1792       H  0.18449328  0.45838243  0.89084652     0.08900
H1793       H  0.20981356  0.43455486  0.85924920     0.08900
H1794       H  0.29365042  0.40164719  0.01558187     0.08900
H1795       H  0.32085989  0.38149943  0.98298875     0.08900
H1796       H  0.28130444  0.35898921  0.99943418     0.05700
C1797       C  0.74904839  0.55954121  0.97274743    -0.20100
C1798       C  0.72341600  0.53678071  0.95773619    -0.06700
C1799       C  0.72650800  0.52873872  0.92212545     0.14200
C1800       C  0.75526829  0.54321727  0.90260144    -0.20200
C1801       C  0.78150071  0.56535532  0.91775415    -0.06700
C1802       C  0.77799642  0.57387497  0.95335248     0.14200
C1803       C  0.80410444  0.59850352  0.97101526    -0.23500
H1804       H  0.74709750  0.56492239  0.00036196     0.15500
H1805       H  0.75732705  0.53708294  0.87517028     0.15500
C1806       C  0.70022410  0.50392978  0.90497840    -0.23400
H1807       H  0.79665710  0.60280693  0.99864819     0.05700
H1808       H  0.80497706  0.62442372  0.95729261     0.08900
H1809       H  0.83092937  0.58732634  0.97083876     0.08900
H1810       H  0.67322324  0.51461532  0.90637287     0.08900
H1811       H  0.70013856  0.47789078  0.91842331     0.08900
H1812       H  0.70681565  0.50013780  0.87704603     0.05700
C1813       C  0.74544686  0.42410180  0.03052566    -0.20100
C1814       C  0.72434140  0.44751789  0.04868899    -0.06700
C1815       C  0.73671697  0.46032135  0.08085144     0.14200
C1816       C  0.77112835  0.45255211  0.09213309    -0.20200
C1817       C  0.79398286  0.43221729  0.07207951    -0.06700
C1818       C  0.78031958  0.41706180  0.04107665     0.14200
C1819       C  0.80301726  0.39625298  0.01697477    -0.23500
H1820       H  0.73622839  0.41495395  0.00539620     0.15500
H1821       H  0.78082076  0.46425680  0.11592088     0.15500
C1822       C  0.71452613  0.48437255  0.10200329    -0.23400
H1823       H  0.78840486  0.38826218  0.99313423     0.05700
H1824       H  0.81163481  0.37191238  0.03011426     0.08900
H1825       H  0.82668097  0.41245358  0.00853496     0.08900
H1826       H  0.68880569  0.47082513  0.10887672     0.08900
H1827       H  0.70939869  0.50868575  0.08674670     0.08900
H1828       H  0.72791680  0.49200393  0.12663421     0.05700
loop_ 
_geom_bond_atom_site_label_1 
_geom_bond_atom_site_label_2 
_geom_bond_distance 
_geom_bond_site_symmetry_2 
_ccdc_geom_bond_type 
Zn1           O5   2.015   1_556  S
Zn1           O6   2.113       .  S
Zn1          O10   2.113       .  S
Zn1          O17   2.099       .  S
Zn2           O5   2.021       .  S
Zn2           O7   2.088       .  S
Zn2           O9   2.108       .  S
Zn2          O13   2.108       .  S
Zn3           O5   2.010   1_556  S
Zn3           O8   2.068       .  S
Zn3          O11   2.067       .  S
Zn3          O14   2.089       .  S
Zn4           O5   2.010       .  S
Zn4          O12   2.085       .  S
Zn4          O15   2.082       .  S
Zn4          O16   2.082       .  S
O6           C18   1.286   1_556  A
O7           C19   1.283       .  A
O8           C20   1.279       .  A
O9           C18   1.285       .  A
O10          C20   1.286       .  A
O11          C19   1.282   1_556  A
O12          C21   1.281       .  A
O13          C22   1.286       .  A
O14          C21   1.282   1_556  A
O15          C22   1.282       .  A
O16          C23   1.283   1_554  A
O17          C23   1.285       .  A
C18         C243   1.527       .  S
C19          C95   1.510       .  S
C20         C480   1.518       .  S
C21         C250   1.516       .  S
C22         C387   1.519       .  S
C23         C104   1.517       .  S
Zn24         O28   2.013   1_545  S
Zn24         O29   2.078       .  S
Zn24         O33   2.086       .  S
Zn24         O40   2.099       .  S
Zn25         O28   2.017   1_545  S
Zn25         O30   2.092       .  S
Zn25         O32   2.090       .  S
Zn25         O36   2.093       .  S
Zn26         O28   2.015       .  S
Zn26         O31   2.091       .  S
Zn26         O34   2.077       .  S
Zn26         O37   2.098       .  S
Zn27         O28   2.018       .  S
Zn27         O35   2.105       .  S
Zn27         O38   2.100       .  S
Zn27         O39   2.095       .  S
O29          C41   1.280       .  A
O30          C42   1.282   1_545  A
O31          C43   1.282   1_565  A
O32          C41   1.281       .  A
O33          C43   1.281       .  A
O34          C42   1.280       .  A
O35          C44   1.284       .  A
O36          C45   1.283   1_545  A
O37          C44   1.283       .  A
O38          C45   1.283       .  A
O39          C46   1.283       .  A
O40          C46   1.284   1_545  A
C41         C430   1.502       .  S
C42         C261   1.501       .  S
C43         C544   1.504       .  S
C44         C437   1.511       .  S
C45         C535   1.507   1_565  S
C46         C311   1.508       .  S
Zn47         O51   2.015       .  S
Zn47         O52   2.091       .  S
Zn47         O56   2.100       .  S
Zn47         O63   2.104       .  S
Zn48         O51   2.006   1_455  S
Zn48         O53   2.100       .  S
Zn48         O55   2.083       .  S
Zn48         O59   2.094       .  S
Zn49         O51   2.012       .  S
Zn49         O54   2.075       .  S
Zn49         O57   2.095       .  S
Zn49         O60   2.065       .  S
Zn50         O51   2.013   1_455  S
Zn50         O58   2.077       .  S
Zn50         O61   2.085       .  S
Zn50         O62   2.076       .  S
O52          C64   1.285       .  A
O53          C65   1.286   1_455  A
O54          C66   1.282       .  A
O55          C64   1.282   1_455  A
O56          C66   1.284       .  A
O57          C65   1.281       .  A
O58          C67   1.281   1_455  A
O59          C68   1.284       .  A
O60          C67   1.281       .  A
O61          C68   1.282       .  A
O62          C69   1.281   1_455  A
O63          C69   1.284       .  A
C64         C113   1.515       .  S
C65         C569   1.522       .  S
C66         C396   1.516       .  S
C67         C131   1.507       .  S
C68         C471   1.517       .  S
C69         C553   1.518       .  S
Zn70         O74   2.011   1_446  S
Zn70         O75   2.099       .  S
Zn70         O79   2.098       .  S
Zn70         O86   2.109       .  S
Zn71         O74   2.023   1_556  S
Zn71         O76   2.105       .  S
Zn71         O78   2.118       .  S
Zn71         O82   2.100       .  S
Zn72         O74   2.016   1_455  S
Zn72         O77   2.091       .  S
Zn72         O80   2.076       .  S
Zn72         O83   2.102       .  S
Zn73         O74   2.011   1_545  S
Zn73         O81   2.081       .  S
Zn73         O84   2.058       .  S
Zn73         O85   2.081       .  S
O75          C87   1.284   1_455  A
O76          C88   1.285   1_556  A
O77          C89   1.284       .  A
O78          C87   1.286   1_565  A
O79          C89   1.284   1_546  A
O80          C88   1.282   1_455  A
O81          C90   1.282   1_645  A
O82          C91   1.284   1_556  A
O83          C90   1.283       .  A
O84          C91   1.280   1_545  A
O85          C92   1.280       .  A
O86          C92   1.287   1_456  A
C87         C626   1.527       .  S
C88         C165   1.517       .  S
C89         C270   1.518       .  S
C90         C562   1.519   1_455  S
C91         C279   1.512       .  S
C92         C124   1.520       .  S
C93        C1814   1.487       .  S
C93          C94   1.416       .  A
C93          C98   1.389       .  A
C94          C95   1.427       .  A
C94          H99   1.083       .  S
C95          C96   1.423   1_554  A
C96          C97   1.410       .  A
C96         H100   1.083       .  S
C97        C1798   1.484       .  S
C97          C98   1.385   1_556  A
C98         H101   1.087       .  S
C102       C1769   1.485       .  S
C102        C103   1.414       .  A
C102        C107   1.385   1_554  A
C103        C104   1.426   1_554  A
C103        H108   1.083       .  S
C104        C105   1.428       .  A
C105        C106   1.418       .  A
C105        H109   1.083       .  S
C106       C1782   1.488       .  S
C106        C107   1.385       .  A
C107        H110   1.087       .  S
C111       C1750   1.481       .  S
C111        C112   1.411       .  A
C111        C116   1.387       .  A
C112        C113   1.423       .  A
C112        H117   1.083       .  S
C113        C114   1.429   1_655  A
C114        C115   1.418       .  A
C114        H118   1.083       .  S
C115       C1734   1.490       .  S
C115        C116   1.388   1_455  A
C116        H119   1.087       .  S
C120       C1705   1.499       .  S
C120        C121   1.392       .  A
C120        C125   1.423       .  A
C121        C122   1.390   1_654  A
C121        H126   1.086       .  S
C122       C1721   1.483       .  S
C122        C123   1.411       .  A
C123        C124   1.420   1_456  A
C123        H127   1.083       .  S
C124        C125   1.432       .  A
C125        H128   1.082       .  S
C129       C1670   1.478       .  S
C129        C130   1.409       .  A
C129        C134   1.387       .  A
C130        C131   1.420       .  A
C130        H135   1.083       .  S
C131        C132   1.424   1_655  A
C132        C133   1.415       .  A
C132        H136   1.083       .  S
C133       C1689   1.484       .  S
C133        C134   1.387   1_455  A
C134        H137   1.087       .  S
Zn138       O142   1.894       .  S
Zn138       O143   1.925       .  S
Zn138       O147   1.943       .  S
Zn138       O154   2.026       .  S
Zn139       O142   1.895       .  S
Zn139       O144   1.968       .  S
Zn139       O146   2.018       .  S
Zn139       O150   1.980       .  S
Zn140       O142   1.923       .  S
Zn140       O145   2.110       .  S
Zn140       O148   2.114       .  S
Zn140       O151   2.090       .  S
Zn141       O142   1.884       .  S
Zn141       O149   1.959       .  S
Zn141       O152   2.001       .  S
Zn141       O153   1.981       .  S
O143        C155   1.267       .  A
O144        C156   1.268       .  A
O145        C157   1.279       .  A
O146        C155   1.273       .  A
O147        C157   1.255       .  A
O148        C156   1.288       .  A
O149        C158   1.268       .  A
O150        C159   1.273       .  A
O151        C158   1.286       .  A
O152        C159   1.271       .  A
O153        C160   1.273       .  A
O154        C160   1.275       .  A
C155       C1657   1.471       .  S
C156       C1785   1.493       .  S
C157       C1686   1.499       .  S
C158       C1718   1.488       .  S
C159       C1641   1.461       .  S
C160       C1625   1.475       .  S
C161       C1606   1.488       .  S
C161        C162   1.387   1_556  A
C161        C166   1.416       .  A
C162        C163   1.390   1_655  A
C162        H167   1.086       .  S
C163       C1590   1.490       .  S
C163        C164   1.415       .  A
C164        C165   1.428   1_455  A
C164        H168   1.083       .  S
C165        C166   1.426   1_554  A
C166        H169   1.083       .  S
Zn170       O174   1.856       .  S
Zn170       O175   1.962       .  S
Zn170       O179   1.958       .  S
Zn170       O186   1.937       .  S
Zn171       O174   1.910       .  S
Zn171       O176   2.010       .  S
Zn171       O178   2.025       .  S
Zn171       O182   1.962       .  S
Zn172       O174   1.885       .  S
Zn172       O177   1.972       .  S
Zn172       O180   2.039       .  S
Zn172       O183   1.965       .  S
Zn173       O174   1.884       .  S
Zn173       O181   2.058       .  S
Zn173       O184   2.093       .  S
Zn173       O185   2.132       .  S
O175        C187   1.263       .  A
O176        C188   1.274       .  A
O177        C189   1.271       .  A
O178        C187   1.273       .  A
O179        C189   1.268       .  A
O180        C188   1.275       .  A
O181        C190   1.283       .  A
O182        C191   1.274       .  A
O183        C190   1.271       .  A
O184        C191   1.290       .  A
O185        C192   1.288       .  A
O186        C192   1.262       .  A
C187       C1561   1.463       .  S
C188       C1577   1.483       .  S
C189       C1542   1.436       .  S
C190       C1673   1.486       .  S
C191       C1801   1.488       .  S
C192       C1609   1.485       .  S
Zn193       O197   1.934       .  S
Zn193       O198   1.957       .  S
Zn193       O202   2.051       .  S
Zn193       O209   2.081       .  S
Zn194       O197   1.932       .  S
Zn194       O199   1.971       .  S
Zn194       O201   2.013       .  S
Zn194       O205   1.972       .  S
Zn195       O197   1.955       .  S
Zn195       O200   2.006       .  S
Zn195       O203   2.015       .  S
Zn195       O206   2.015       .  S
Zn196       O197   1.934       .  S
Zn196       O204   1.993       .  S
Zn196       O207   1.994       .  S
Zn196       O208   2.047       .  S
O198        C210   1.266       .  A
O199        C211   1.268       .  A
O200        C212   1.274       .  A
O201        C210   1.271       .  A
O202        C212   1.283       .  A
O203        C211   1.270       .  A
O204        C213   1.273       .  A
O205        C214   1.272       .  A
O206        C213   1.273       .  A
O207        C214   1.266       .  A
O208        C215   1.278       .  A
O209        C215   1.284       .  A
C210       C1494   1.456       .  S
C211       C1526   1.468       .  S
C212       C1753   1.504       .  S
C213       C1817   1.504       .  S
C214       C1510   1.458       .  S
C215       C1702   1.518       .  S
Zn216       O220   1.948       .  S
Zn216       O221   1.996       .  S
Zn216       O225   2.009       .  S
Zn216       O232   1.994       .  S
Zn217       O220   1.889       .  S
Zn217       O222   2.001       .  S
Zn217       O224   1.961       .  S
Zn217       O228   2.030       .  S
Zn218       O220   1.887       .  S
Zn218       O223   1.969       .  S
Zn218       O226   2.038       .  S
Zn218       O229   2.052       .  S
Zn219       O220   1.877       .  S
Zn219       O227   2.031       .  S
Zn219       O230   2.040       .  S
Zn219       O231   1.974       .  S
O221        C233   1.270       .  A
O222        C234   1.276       .  A
O223        C235   1.267       .  A
O224        C233   1.266       .  A
O225        C235   1.270       .  A
O226        C234   1.283       .  A
O227        C236   1.278       .  A
O228        C237   1.281       .  A
O229        C236   1.286       .  A
O230        C237   1.278       .  A
O231        C238   1.272       .  A
O232        C238   1.269       .  A
C233       C1462   1.470       .  S
C234       C1766   1.506       .  S
C235       C1478   1.479       .  S
C236       C1737   1.498       .  S
C237       C1593   1.501       .  S
C238       C1446   1.448       .  S
C239       C1414   1.495       .  S
C239        C240   1.389       .  A
C239        C244   1.422       .  A
C240        C241   1.387   1_554  A
C240        H245   1.087       .  S
C241       C1430   1.490       .  S
C241        C242   1.417       .  A
C242        C243   1.427   1_556  A
C242        H246   1.083       .  S
C243        C244   1.432       .  A
C244        H247   1.083       .  S
C248       C1398   1.489       .  S
C248        C249   1.414       .  A
C248        C253   1.388   1_554  A
C249        C250   1.426       .  A
C249        H254   1.083       .  S
C250        C251   1.427   1_554  A
C251        C252   1.419       .  A
C251        H255   1.082       .  S
C252       C1385   1.495       .  S
C252        C253   1.388       .  A
C253        H256   1.086       .  S
C257       C1366   1.483       .  S
C257        C258   1.389       .  A
C257        C262   1.413       .  A
C258        C259   1.389   1_565  A
C258        H263   1.086       .  S
C259       C1350   1.490       .  S
C259        C260   1.417       .  A
C260        C261   1.423   1_545  A
C260        H264   1.083       .  S
C261        C262   1.420       .  A
C262        H265   1.083       .  S
C266       C1321   1.483       .  S
C266        C267   1.384   1_565  A
C266        C271   1.413       .  A
C267        C268   1.384   1_554  A
C267        H272   1.087       .  S
C268       C1334   1.489       .  S
C268        C269   1.418       .  A
C269        C270   1.430   1_546  A
C269        H273   1.083       .  S
C270        C271   1.426       .  A
C271        H274   1.082       .  S
C275       C1302   1.483   1_554  S
C275        C276   1.384       .  A
C275        C280   1.416   1_554  A
C276        C277   1.387   1_565  A
C276        H281   1.087       .  S
C277       C1286   1.484       .  S
C277        C278   1.412       .  A
C278        C279   1.425   1_545  A
C278        H282   1.083       .  S
C279        C280   1.424   1_554  A
C280        H283   1.083       .  S
Zn284       O288   1.901       .  S
Zn284       O289   2.012       .  S
Zn284       O293   1.898       .  S
Zn284       O300   1.989       .  S
Zn285       O288   1.861       .  S
Zn285       O290   1.923       .  S
Zn285       O292   1.963       .  S
Zn285       O296   1.950       .  S
Zn286       O288   1.885       .  S
Zn286       O291   2.149       .  S
Zn286       O294   2.144       .  S
Zn286       O297   2.115       .  S
Zn287       O288   1.872       .  S
Zn287       O295   1.957       .  S
Zn287       O298   1.972       .  S
Zn287       O299   2.008       .  S
O289        C301   1.271       .  A
O290        C302   1.264       .  A
O291        C303   1.295       .  A
O292        C301   1.265       .  A
O293        C303   1.265       .  A
O294        C302   1.290       .  A
O295        C304   1.270       .  A
O296        C305   1.264       .  A
O297        C304   1.290       .  A
O298        C305   1.272       .  A
O299        C306   1.270       .  A
O300        C306   1.273       .  A
C301       C1558   1.484       .  S
C302       C1382   1.497       .  S
C303       C1305   1.478       .  S
C304       C1270   1.499       .  S
C305       C1254   1.443       .  S
C306       C1238   1.484       .  S
C307       C1273   1.493       .  S
C307        C308   1.389       .  A
C307        C312   1.417       .  A
C308        C309   1.389   1_565  A
C308        H313   1.086       .  S
C309       C1222   1.497       .  S
C309        C310   1.420       .  A
C310        C311   1.425   1_545  A
C310        H314   1.083       .  S
C311        C312   1.422       .  A
C312        H315   1.083       .  S
Zn316       O320   1.819       .  S
Zn316       O321   2.104       .  S
Zn316       O325   2.113       .  S
Zn316       O332   2.123       .  S
Zn317       O320   1.877       .  S
Zn317       O322   1.997       .  S
Zn317       O324   1.966       .  S
Zn317       O328   1.976       .  S
Zn318       O320   1.859       .  S
Zn318       O323   1.976       .  S
Zn318       O326   1.984       .  S
Zn318       O329   1.993       .  S
Zn319       O320   1.856       .  S
Zn319       O327   1.970       .  S
Zn319       O330   1.969       .  S
Zn319       O331   1.959       .  S
O321        C333   1.287       .  A
O322        C334   1.274       .  A
O323        C335   1.273       .  A
O324        C333   1.268       .  A
O325        C335   1.291       .  A
O326        C334   1.275       .  A
O327        C336   1.271       .  A
O328        C337   1.271       .  A
O329        C336   1.272       .  A
O330        C337   1.268       .  A
O331        C338   1.272       .  A
O332        C338   1.292       .  A
C333       C1337   1.497       .  S
C334       C1638   1.473       .  S
C335       C1433   1.496       .  S
C336       C1206   1.462       .  S
C337       C1190   1.460       .  S
C338       C1225   1.500       .  S
Zn339       O343   1.939       .  S
Zn339       O344   2.006       .  S
Zn339       O348   2.006       .  S
Zn339       O355   1.960       .  S
Zn340       O343   1.864       .  S
Zn340       O345   2.020       .  S
Zn340       O347   1.951       .  S
Zn340       O351   2.024       .  S
Zn341       O343   1.865       .  S
Zn341       O346   1.946       .  S
Zn341       O349   2.023       .  S
Zn341       O352   2.011       .  S
Zn342       O343   1.871       .  S
Zn342       O350   2.049       .  S
Zn342       O353   2.042       .  S
Zn342       O354   2.005       .  S
O344        C356   1.272       .  A
O345        C357   1.280       .  A
O346        C358   1.263       .  A
O347        C356   1.264       .  A
O348        C358   1.272       .  A
O349        C357   1.281       .  A
O350        C359   1.281       .  A
O351        C360   1.282       .  A
O352        C359   1.284       .  A
O353        C360   1.280       .  A
O354        C361   1.275       .  A
O355        C361   1.265       .  A
C356       C1465   1.469       .  S
C357       C1318   1.505       .  S
C358       C1158   1.465       .  S
C359       C1369   1.488       .  S
C360       C1401   1.498       .  S
C361       C1174   1.447       .  S
Zn362       O366   1.896       .  S
Zn362       O367   1.966       .  S
Zn362       O371   1.949       .  S
Zn362       O378   2.027       .  S
Zn363       O366   1.885       .  S
Zn363       O368   1.967       .  S
Zn363       O370   2.014       .  S
Zn363       O374   1.968       .  S
Zn364       O366   1.886       .  S
Zn364       O369   2.084       .  S
Zn364       O372   2.111       .  S
Zn364       O375   2.091       .  S
Zn365       O366   1.882       .  S
Zn365       O373   1.982       .  S
Zn365       O376   1.981       .  S
Zn365       O377   1.981       .  S
O367        C379   1.272       .  A
O368        C380   1.267       .  A
O369        C381   1.280       .  A
O370        C379   1.273       .  A
O371        C381   1.264       .  A
O372        C380   1.286       .  A
O373        C382   1.272       .  A
O374        C383   1.273       .  A
O375        C382   1.285       .  A
O376        C383   1.270       .  A
O377        C384   1.274       .  A
O378        C384   1.276       .  A
C379       C1513   1.478       .  S
C380       C1417   1.502       .  S
C381       C1289   1.500       .  S
C382       C1353   1.504       .  S
C383       C1145   1.449       .  S
C384       C1126   1.482       .  S
C385       C1094   1.491       .  S
C385        C386   1.419       .  A
C385        C390   1.385       .  A
C386        C387   1.431       .  A
C386        H391   1.082       .  S
C387        C388   1.425       .  A
C388        C389   1.414       .  A
C388        H392   1.083       .  S
C389       C1113   1.483       .  S
C389        C390   1.386       .  A
C390        H393   1.087       .  S
C394       C1078   1.488       .  S
C394        C395   1.418       .  A
C394        C399   1.386       .  A
C395        C396   1.425       .  A
C395        H400   1.083       .  S
C396        C397   1.425       .  A
C397        C398   1.415       .  A
C397        H401   1.083       .  S
C398       C1065   1.488       .  S
C398        C399   1.387       .  A
C399        H402   1.087       .  S
Zn403       O407   1.856       .  S
Zn403       O408   1.931       .  S
Zn403       O412   1.952       .  S
Zn403       O419   1.988       .  S
Zn404       O407   1.836       .  S
Zn404       O409   2.105       .  S
Zn404       O411   2.127       .  S
Zn404       O415   2.089       .  S
Zn405       O407   1.861       .  S
Zn405       O410   2.058       .  S
Zn405       O413   1.973       .  S
Zn405       O416   1.997       .  S
Zn406       O407   1.858       .  S
Zn406       O414   1.957       .  S
Zn406       O417   1.983       .  S
Zn406       O418   1.964       .  S
O408        C420   1.268       .  A
O409        C421   1.290       .  A
O410        C422   1.281       .  A
O411        C420   1.291       .  A
O412        C422   1.268       .  A
O413        C421   1.270       .  A
O414        C423   1.267       .  A
O415        C424   1.285       .  A
O416        C423   1.276       .  A
O417        C424   1.270       .  A
O418        C425   1.273       .  A
O419        C425   1.271       .  A
C420       C1081   1.492       .  S
C421       C1110   1.484       .  S
C422       C1529   1.480       .  S
C423       C1142   1.451       .  S
C424       C1046   1.501       .  S
C425       C1030   1.463       .  S
C426       C1049   1.489       .  S
C426        C427   1.388       .  A
C426        C431   1.419       .  A
C427        C428   1.387       .  A
C427        H432   1.087       .  S
C428       C1014   1.481       .  S
C428        C429   1.411       .  A
C429        C430   1.419       .  A
C429        H433   1.083       .  S
C430        C431   1.426       .  A
C431        H434   1.083       .  S
C435        C998   1.488       .  S
C435        C436   1.414       .  A
C435        C440   1.392       .  A
C436        C437   1.420       .  A
C436        H441   1.083       .  S
C437        C438   1.427       .  A
C438        C439   1.423       .  A
C438        H442   1.083       .  S
C439        C982   1.498       .  S
C439        C440   1.392       .  A
C440        H443   1.086       .  S
Zn444       O448   1.946       .  S
Zn444       O449   1.985       .  S
Zn444       O453   1.989       .  S
Zn444       O460   1.995       .  S
Zn445       O448   1.906       .  S
Zn445       O450   2.050       .  S
Zn445       O452   1.980       .  S
Zn445       O456   2.045       .  S
Zn446       O448   1.927       .  S
Zn446       O451   1.990       .  S
Zn446       O454   2.034       .  S
Zn446       O457   1.984       .  S
Zn447       O448   1.941       .  S
Zn447       O455   2.032       .  S
Zn447       O458   2.032       .  S
Zn447       O459   1.977       .  S
O449        C461   1.268       .  A
O450        C462   1.279       .  A
O451        C463   1.268       .  A
O452        C461   1.272       .  A
O453        C463   1.270       .  A
O454        C462   1.279       .  A
O455        C464   1.278       .  A
O456        C465   1.277       .  A
O457        C464   1.275       .  A
O458        C465   1.283       .  A
O459        C466   1.265       .  A
O460        C466   1.268       .  A
C461       C1177   1.447       .  S
C462       C1001   1.499       .  S
C463        C950   1.474       .  S
C464        C966   1.506       .  S
C465       C1097   1.494       .  S
C466       C1481   1.467       .  S
C467        C969   1.484       .  S
C467        C468   1.384       .  A
C467        C472   1.413       .  A
C468        C469   1.381       .  A
C468        H473   1.088       .  S
C469        C934   1.490       .  S
C469        C470   1.418       .  A
C470        C471   1.433       .  A
C470        H474   1.083       .  S
C471        C472   1.428       .  A
C472        H475   1.082       .  S
C476        C905   1.498       .  S
C476        C477   1.386       .  A
C476        C481   1.419       .  A
C477        C478   1.387       .  A
C477        H482   1.087       .  S
C478        C918   1.487       .  S
C478        C479   1.414       .  A
C479        C480   1.425       .  A
C479        H483   1.083       .  S
C480        C481   1.433       .  A
C481        H484   1.082       .  S
Zn485       O489   1.917       .  S
Zn485       O490   1.981       .  S
Zn485       O494   1.989       .  S
Zn485       O501   1.991       .  S
Zn486       O489   1.889       .  S
Zn486       O491   2.048       .  S
Zn486       O493   1.981       .  S
Zn486       O497   2.051       .  S
Zn487       O489   1.891       .  S
Zn487       O492   1.972       .  S
Zn487       O495   2.017       .  S
Zn487       O498   2.005       .  S
Zn488       O489   1.866       .  S
Zn488       O496   2.023       .  S
Zn488       O499   2.021       .  S
Zn488       O500   1.974       .  S
O490        C502   1.270       .  A
O491        C503   1.286       .  A
O492        C504   1.260       .  A
O493        C502   1.266       .  A
O494        C504   1.267       .  A
O495        C503   1.278       .  A
O496        C505   1.277       .  A
O497        C506   1.285       .  A
O498        C505   1.279       .  A
O499        C506   1.280       .  A
O500        C507   1.272       .  A
O501        C507   1.271       .  A
C502        C886   1.460       .  S
C503        C937   1.510       .  S
C504       C1654   1.448       .  S
C505        C921   1.501       .  S
C506       C1017   1.497       .  S
C507       C1209   1.467       .  S
Zn508       O512   1.858       .  S
Zn508       O513   1.943       .  S
Zn508       O517   1.983       .  S
Zn508       O524   2.001       .  S
Zn509       O512   1.900       .  S
Zn509       O514   1.988       .  S
Zn509       O516   1.964       .  S
Zn509       O520   1.977       .  S
Zn510       O512   1.918       .  S
Zn510       O515   2.130       .  S
Zn510       O518   2.115       .  S
Zn510       O521   2.109       .  S
Zn511       O512   1.927       .  S
Zn511       O519   1.944       .  S
Zn511       O522   2.057       .  S
Zn511       O523   1.990       .  S
O513        C525   1.273       .  A
O514        C526   1.270       .  A
O515        C527   1.291       .  A
O516        C525   1.268       .  A
O517        C527   1.270       .  A
O518        C526   1.287       .  A
O519        C528   1.261       .  A
O520        C529   1.270       .  A
O521        C528   1.282       .  A
O522        C529   1.277       .  A
O523        C530   1.267       .  A
O524        C530   1.272       .  A
C525       C1257   1.439       .  S
C526        C902   1.508       .  S
C527        C985   1.492       .  S
C528       C1062   1.503       .  S
C529       C1574   1.486       .  S
C530        C873   1.484       .  S
C531        C841   1.485       .  S
C531        C532   1.386       .  A
C531        C536   1.416       .  A
C532        C533   1.384   1_545  A
C532        H537   1.087       .  S
C533        C857   1.487       .  S
C533        C534   1.418       .  A
C534        C535   1.424   1_565  A
C534        H538   1.083       .  S
C535        C536   1.424       .  A
C536        H539   1.083       .  S
C540        C806   1.490       .  S
C540        C541   1.392   1_565  A
C540        C545   1.415       .  A
C541        C542   1.392       .  A
C541        H546   1.086       .  S
C542        C822   1.499       .  S
C542        C543   1.418       .  A
C543        C544   1.425       .  A
C543        H547   1.083       .  S
C544        C545   1.421   1_545  A
C545        H548   1.083       .  S
C549        C777   1.486       .  S
C549        C550   1.386       .  A
C549        C554   1.413       .  A
C550        C551   1.382   1_455  A
C550        H555   1.088       .  S
C551        C793   1.489       .  S
C551        C552   1.419       .  A
C552        C553   1.430       .  A
C552        H556   1.082       .  S
C553        C554   1.429   1_655  A
C554        H557   1.083       .  S
C558        C742   1.489       .  S
C558        C559   1.388   1_545  A
C558        C563   1.414       .  A
C559        C560   1.391   1_655  A
C559        H564   1.086       .  S
C560        C758   1.496       .  S
C560        C561   1.422       .  A
C561        C562   1.427   1_455  A
C561        H565   1.082       .  S
C562        C563   1.423   1_565  A
C563        H566   1.083       .  S
C567        C729   1.499       .  S
C567        C568   1.426       .  A
C567        C572   1.389       .  A
C568        C569   1.435       .  A
C568        H573   1.082       .  S
C569        C570   1.421   1_655  A
C570        C571   1.409       .  A
C570        H574   1.083       .  S
C571        C713   1.481       .  S
C571        C572   1.387   1_455  A
C572        H575   1.087       .  S
Zn576       O580   1.841       .  S
Zn576       O581   1.994       .  S
Zn576       O585   1.972       .  S
Zn576       O592   1.987       .  S
Zn577       O580   1.826       .  S
Zn577       O582   1.933       .  S
Zn577       O584   1.989       .  S
Zn577       O588   1.948       .  S
Zn578       O580   1.877       .  S
Zn578       O583   2.086       .  S
Zn578       O586   2.133       .  S
Zn578       O589   2.143       .  S
Zn579       O580   1.898       .  S
Zn579       O587   1.915       .  S
Zn579       O590   2.051       .  S
Zn579       O591   2.009       .  S
O581        C593   1.278       .  A
O582        C594   1.265       .  A
O583        C595   1.289       .  A
O584        C593   1.271       .  A
O585        C595   1.273       .  A
O586        C594   1.289       .  A
O587        C596   1.266       .  A
O588        C597   1.259       .  A
O589        C596   1.295       .  A
O590        C597   1.278       .  A
O591        C598   1.276       .  A
O592        C598   1.270       .  A
C593       C1449   1.469       .  S
C594        C761   1.488       .  S
C595        C710   1.487       .  S
C596        C854   1.481       .  S
C597       C1161   1.465       .  S
C598        C953   1.475       .  S
Zn599       O603   1.936       .  S
Zn599       O604   2.138       .  S
Zn599       O608   2.110       .  S
Zn599       O615   2.088       .  S
Zn600       O603   1.878       .  S
Zn600       O605   1.966       .  S
Zn600       O607   1.941       .  S
Zn600       O611   1.893       .  S
Zn601       O603   1.969       .  S
Zn601       O606   1.949       .  S
Zn601       O609   2.003       .  S
Zn601       O612   2.026       .  S
Zn602       O603   1.902       .  S
Zn602       O610   2.007       .  S
Zn602       O613   2.056       .  S
Zn602       O614   2.030       .  S
O604        C616   1.286       .  A
O605        C617   1.267       .  A
O606        C618   1.262       .  A
O607        C616   1.256       .  A
O608        C618   1.281       .  A
O609        C617   1.263       .  A
O610        C619   1.279       .  A
O611        C620   1.257       .  A
O612        C619   1.276       .  A
O613        C620   1.277       .  A
O614        C621   1.278       .  A
O615        C621   1.287       .  A
C616        C790   1.483       .  S
C617       C1497   1.469       .  S
C618        C745   1.504       .  S
C619       C1129   1.464       .  S
C620       C1033   1.461       .  S
C621        C825   1.498       .  S
C622        C678   1.492       .  S
C622        C623   1.387       .  A
C622        C627   1.417       .  A
C623        C624   1.387   1_445  A
C623        H628   1.087       .  S
C624        C694   1.496       .  S
C624        C625   1.423       .  A
C625        C626   1.432   1_565  A
C625        H629   1.082       .  S
C626        C627   1.430   1_655  A
C627        H630   1.083       .  S
Zn631       O635   1.932       .  S
Zn631       O636   1.979       .  S
Zn631       O640   1.965       .  S
Zn631       O647   1.960       .  S
Zn632       O635   1.954       .  S
Zn632       O637   2.054       .  S
Zn632       O639   1.928       .  S
Zn632       O643   2.047       .  S
Zn633       O635   1.970       .  S
Zn633       O638   2.016       .  S
Zn633       O641   2.062       .  S
Zn633       O644   2.012       .  S
Zn634       O635   1.975       .  S
Zn634       O642   2.024       .  S
Zn634       O645   2.051       .  S
Zn634       O646   2.027       .  S
O636        C648   1.268       .  A
O637        C649   1.279       .  A
O638        C650   1.268       .  A
O639        C648   1.262       .  A
O640        C650   1.267       .  A
O641        C649   1.279       .  A
O642        C651   1.278       .  A
O643        C652   1.279       .  A
O644        C651   1.278       .  A
O645        C652   1.277       .  A
O646        C653   1.270       .  A
O647        C653   1.266       .  A
C648       C1545   1.445       .  S
C649        C726   1.513       .  S
C650        C870   1.465       .  S
C651        C809   1.506       .  S
C652        C697   1.516       .  S
C653       C1241   1.470       .  S
Zn654       O658   1.984       .  S
Zn654       O659   2.032       .  S
Zn654       O663   2.005       .  S
Zn654       O670   2.030       .  S
Zn655       O658   1.935       .  S
Zn655       O660   1.925       .  S
Zn655       O662   2.027       .  S
Zn655       O666   2.033       .  S
Zn656       O658   1.918       .  S
Zn656       O661   1.937       .  S
Zn656       O664   1.984       .  S
Zn656       O667   1.974       .  S
Zn657       O658   1.954       .  S
Zn657       O665   2.025       .  S
Zn657       O668   2.055       .  S
Zn657       O669   1.991       .  S
O659        C671   1.277       .  A
O660        C672   1.260       .  A
O661        C673   1.264       .  A
O662        C671   1.275       .  A
O663        C673   1.267       .  A
O664        C672   1.268       .  A
O665        C674   1.270       .  A
O666        C675   1.278       .  A
O667        C674   1.269       .  A
O668        C675   1.279       .  A
O669        C676   1.275       .  A
O670        C676   1.276       .  A
C671        C838   1.509       .  S
C672       C1193   1.450       .  S
C673        C889   1.449       .  S
C674       C1622   1.471       .  S
C675        C681   1.508       .  S
C676        C774   1.504       .  S
C677        C678   1.403       .  A
C677        C682   1.414       .  A
C677        H684   1.084       .  S
C678        C679   1.417       .  A
C679        C680   1.407       .  A
C679        C686   1.507   1_545  S
C680        C681   1.409       .  A
C680        H685   1.084       .  S
C681        C682   1.426       .  A
C682        C683   1.508       .  S
C683        H687   1.111       .  S
C683        H688   1.110       .  S
C683        H689   1.111       .  S
C686        H690   1.111       .  S
C686        H691   1.109       .  S
C686        H692   1.110       .  S
C693        C694   1.406       .  A
C693        C698   1.413       .  A
C693        H700   1.085   1_565  S
C694        C695   1.414       .  A
C695        C696   1.413       .  A
C695        C702   1.506       .  S
C696        C697   1.413       .  A
C696        H701   1.084       .  S
C697        C698   1.426       .  A
C698        C699   1.508   1_565  S
C699        H703   1.111       .  S
C699        H704   1.106   1_545  S
C699        H705   1.110       .  S
C702        H706   1.110       .  S
C702        H707   1.109       .  S
C702        H708   1.110   1_655  S
C709        C710   1.404       .  A
C709        C714   1.402       .  A
C709        H716   1.085       .  S
C710        C711   1.420       .  A
C711        C712   1.409       .  A
C711        C718   1.508       .  S
C712        C713   1.402       .  A
C712        H717   1.084   1_455  S
C713        C714   1.415       .  A
C714        C715   1.508       .  S
C715        H719   1.111       .  S
C715        H720   1.109       .  S
C715        H721   1.110       .  S
C718        H722   1.109       .  S
C718        H723   1.110       .  S
C718        H724   1.111   1_455  S
C725        C726   1.408       .  A
C725        C730   1.413       .  A
C725        H732   1.084       .  S
C726        C727   1.426       .  A
C727        C728   1.415       .  A
C727        C734   1.508       .  S
C728        C729   1.404       .  A
C728        H733   1.084       .  S
C729        C730   1.419       .  A
C730        C731   1.506   1_655  S
C731        H735   1.110       .  S
C731        H736   1.109       .  S
C731        H737   1.110   1_455  S
C734        H738   1.109       .  S
C734        H739   1.111       .  S
C734        H740   1.111       .  S
C741        C742   1.409       .  A
C741        C746   1.414       .  A
C741        H748   1.084   1_545  S
C742        C743   1.408       .  A
C743        C744   1.402       .  A
C743        C750   1.509   1_655  S
C744        C745   1.414       .  A
C744        H749   1.083       .  S
C745        C746   1.419       .  A
C746        C747   1.506       .  S
C747        H751   1.111   1_545  S
C747        H752   1.110       .  S
C747        H753   1.110       .  S
C750        H754   1.110   1_455  S
C750        H755   1.111       .  S
C750        H756   1.111       .  S
C757        C758   1.414       .  A
C757        C762   1.412       .  A
C757        H764   1.084   1_455  S
C758        C759   1.413       .  A
C759        C760   1.407       .  A
C759        C766   1.507       .  S
C760        C761   1.408       .  A
C760        H765   1.085       .  S
C761        C762   1.410       .  A
C762        C763   1.506       .  S
C763        H767   1.111   1_455  S
C763        H768   1.110       .  S
C763        H769   1.111       .  S
C766        H770   1.111       .  S
C766        H771   1.109       .  S
C766        H772   1.111       .  S
C773        C774   1.411       .  A
C773        C778   1.407       .  A
C773        H780   1.080       .  S
C774        C775   1.421       .  A
C775        C776   1.410       .  A
C775        C782   1.509       .  S
C776        C777   1.407       .  A
C776        H781   1.084   1_455  S
C777        C778   1.411       .  A
C778        C779   1.505       .  S
C779        H783   1.108       .  S
C779        H784   1.110       .  S
C779        H785   1.110       .  S
C782        H786   1.107       .  S
C782        H787   1.110   1_455  S
C782        H788   1.111   1_455  S
C789        C790   1.407       .  A
C789        C794   1.412       .  A
C789        H796   1.083       .  S
C790        C791   1.414       .  A
C791        C792   1.408       .  A
C791        C798   1.507       .  S
C792        C793   1.407       .  A
C792        H797   1.084       .  S
C793        C794   1.413       .  A
C794        C795   1.505       .  S
C795        H799   1.111   1_655  S
C795        H800   1.110   1_655  S
C795        H801   1.111       .  S
C798        H802   1.110       .  S
C798        H803   1.110       .  S
C798        H804   1.111       .  S
C805        C806   1.407       .  A
C805        C810   1.411       .  A
C805        H812   1.085       .  S
C806        C807   1.412       .  A
C807        C808   1.407       .  A
C807        C814   1.507       .  S
C808        C809   1.410       .  A
C808        H813   1.082       .  S
C809        C810   1.421       .  A
C810        C811   1.508       .  S
C811        H815   1.111       .  S
C811        H816   1.107       .  S
C811        H817   1.110       .  S
C814        H818   1.108   1_565  S
C814        H819   1.110   1_565  S
C814        H820   1.111       .  S
C821        C822   1.410       .  A
C821        C826   1.409       .  A
C821        H828   1.084       .  S
C822        C823   1.414       .  A
C823        C824   1.414       .  A
C823        C830   1.506       .  S
C824        C825   1.410       .  A
C824        H829   1.084       .  S
C825        C826   1.415       .  A
C826        C827   1.508       .  S
C827        H831   1.111       .  S
C827        H832   1.111       .  S
C827        H833   1.109       .  S
C830        H834   1.110       .  S
C830        H835   1.110       .  S
C830        H836   1.111       .  S
C837        C838   1.412       .  A
C837        C842   1.406       .  A
C837        H844   1.084       .  S
C838        C839   1.426       .  A
C839        C840   1.412       .  A
C839        C846   1.508       .  S
C840        C841   1.403       .  A
C840        H845   1.084       .  S
C841        C842   1.412       .  A
C842        C843   1.506       .  S
C843        H847   1.111       .  S
C843        H848   1.110       .  S
C843        H849   1.110       .  S
C846        H850   1.110       .  S
C846        H851   1.110       .  S
C846        H852   1.111       .  S
C853        C854   1.410       .  A
C853        C858   1.407       .  A
C853        H860   1.084       .  S
C854        C855   1.413       .  A
C855        C856   1.410       .  A
C855        C862   1.506       .  S
C856        C857   1.409       .  A
C856        H861   1.084       .  S
C857        C858   1.411       .  A
C858        C859   1.506       .  S
C859        H863   1.111       .  S
C859        H864   1.110       .  S
C859        H865   1.110       .  S
C862        H866   1.110       .  S
C862        H867   1.109       .  S
C862        H868   1.111       .  S
C869        C870   1.399       .  A
C869        C874   1.403       .  A
C869        H876   1.084       .  S
C870        C871   1.407       .  A
C871        C872   1.396       .  A
C871        C878   1.506       .  S
C872        C873   1.407       .  A
C872        H877   1.084       .  S
C873        C874   1.422       .  A
C874        C875   1.508       .  S
C875        H879   1.111       .  S
C875        H880   1.110       .  S
C875        H881   1.110       .  S
C878        H882   1.111       .  S
C878        H883   1.111       .  S
C878        H884   1.110       .  S
C885        C886   1.403       .  A
C885        C890   1.400       .  A
C885        H892   1.084       .  S
C886        C887   1.412       .  A
C887        C888   1.392       .  A
C887        C894   1.508       .  S
C888        C889   1.398       .  A
C888        H893   1.084       .  S
C889        C890   1.409       .  A
C890        C891   1.508       .  S
C891        H895   1.111       .  S
C891        H896   1.110       .  S
C891        H897   1.111       .  S
C894        H898   1.107       .  S
C894        H899   1.110       .  S
C894        H900   1.109       .  S
C901        C902   1.416       .  A
C901        C906   1.412       .  A
C901        H908   1.084       .  S
C902        C903   1.417       .  A
C903        C904   1.412       .  A
C903        C910   1.506       .  S
C904        C905   1.411       .  A
C904        H909   1.085       .  S
C905        C906   1.410       .  A
C906        C907   1.506       .  S
C907        H911   1.111       .  S
C907        H912   1.110       .  S
C907        H913   1.110       .  S
C910        H914   1.110       .  S
C910        H915   1.110       .  S
C910        H916   1.111       .  S
C917        C918   1.405       .  A
C917        C922   1.406       .  A
C917        H924   1.085       .  S
C918        C919   1.408       .  A
C919        C920   1.410       .  A
C919        C926   1.505       .  S
C920        C921   1.414       .  A
C920        H925   1.084       .  S
C921        C922   1.423       .  A
C922        C923   1.509       .  S
C923        H927   1.111       .  S
C923        H928   1.109       .  S
C923        H929   1.110       .  S
C926        H930   1.110       .  S
C926        H931   1.110       .  S
C926        H932   1.111       .  S
C933        C934   1.405       .  A
C933        C938   1.413       .  A
C933        H940   1.085       .  S
C934        C935   1.413       .  A
C935        C936   1.410       .  A
C935        C942   1.507       .  S
C936        C937   1.412       .  A
C936        H941   1.083       .  S
C937        C938   1.426       .  A
C938        C939   1.509       .  S
C939        H943   1.111       .  S
C939        H944   1.110       .  S
C939        H945   1.108       .  S
C942        H946   1.110       .  S
C942        H947   1.110       .  S
C942        H948   1.111       .  S
C949        C950   1.405       .  A
C949        C954   1.398       .  A
C949        H956   1.084       .  S
C950        C951   1.412       .  A
C951        C952   1.398       .  A
C951        C958   1.506       .  S
C952        C953   1.405       .  A
C952        H957   1.084       .  S
C953        C954   1.412       .  A
C954        C955   1.506       .  S
C955        H959   1.111       .  S
C955        H960   1.109       .  S
C955        H961   1.110       .  S
C958        H962   1.110       .  S
C958        H963   1.111       .  S
C958        H964   1.110       .  S
C965        C966   1.414       .  A
C965        C970   1.410       .  A
C965        H972   1.084       .  S
C966        C967   1.422       .  A
C967        C968   1.408       .  A
C967        C974   1.509       .  S
C968        C969   1.406       .  A
C968        H973   1.085       .  S
C969        C970   1.409       .  A
C970        C971   1.506       .  S
C971        H975   1.109       .  S
C971        H976   1.110       .  S
C971        H977   1.110       .  S
C974        H978   1.107       .  S
C974        H979   1.110       .  S
C974        H980   1.111       .  S
C981        C982   1.410       .  A
C981        C986   1.414       .  A
C981        H988   1.084       .  S
C982        C983   1.414       .  A
C983        C984   1.413       .  A
C983        C990   1.505       .  S
C984        C985   1.408       .  A
C984        H989   1.084       .  S
C985        C986   1.413       .  A
C986        C987   1.505       .  S
C987        H991   1.111       .  S
C987        H992   1.110       .  S
C987        H993   1.110       .  S
C990        H994   1.110       .  S
C990        H995   1.110       .  S
C990        H996   1.111       .  S
C997        C998   1.405       .  A
C997       C1002   1.412       .  A
C997       H1004   1.084       .  S
C998        C999   1.412       .  A
C999       C1000   1.407       .  A
C999       C1006   1.507       .  S
C1000      C1001   1.409       .  A
C1000      H1005   1.084       .  S
C1001      C1002   1.419       .  A
C1002      C1003   1.506       .  S
C1003      H1007   1.111       .  S
C1003      H1008   1.109       .  S
C1003      H1009   1.110       .  S
C1006      H1010   1.110       .  S
C1006      H1011   1.110       .  S
C1006      H1012   1.111       .  S
C1013      C1014   1.401       .  A
C1013      C1018   1.407       .  A
C1013      H1020   1.085       .  S
C1014      C1015   1.411       .  A
C1015      C1016   1.408       .  A
C1015      C1022   1.507       .  S
C1016      C1017   1.410       .  A
C1016      H1021   1.084       .  S
C1017      C1018   1.422       .  A
C1018      C1019   1.508       .  S
C1019      H1023   1.111       .  S
C1019      H1024   1.110       .  S
C1019      H1025   1.110       .  S
C1022      H1026   1.110       .  S
C1022      H1027   1.110       .  S
C1022      H1028   1.111       .  S
C1029      C1030   1.397       .  A
C1029      C1034   1.387       .  A
C1029      H1036   1.086       .  S
C1030      C1031   1.417       .  A
C1031      C1032   1.401       .  A
C1031      C1038   1.508       .  S
C1032      C1033   1.398       .  A
C1032      H1037   1.083       .  S
C1033      C1034   1.418       .  A
C1034      C1035   1.514       .  S
C1035      H1039   1.111       .  S
C1035      H1040   1.109       .  S
C1035      H1041   1.111       .  S
C1038      H1042   1.110       .  S
C1038      H1043   1.110       .  S
C1038      H1044   1.111       .  S
C1045      C1046   1.407       .  A
C1045      C1050   1.411       .  A
C1045      H1052   1.084       .  S
C1046      C1047   1.424       .  A
C1047      C1048   1.411       .  A
C1047      C1054   1.509       .  S
C1048      C1049   1.402       .  A
C1048      H1053   1.084       .  S
C1049      C1050   1.415       .  A
C1050      C1051   1.507       .  S
C1051      H1055   1.111       .  S
C1051      H1056   1.110       .  S
C1051      H1057   1.110       .  S
C1054      H1058   1.110       .  S
C1054      H1059   1.109       .  S
C1054      H1060   1.111       .  S
C1061      C1062   1.415       .  A
C1061      C1066   1.401       .  A
C1061      H1068   1.083       .  S
C1062      C1063   1.418       .  A
C1063      C1064   1.413       .  A
C1063      C1070   1.506       .  S
C1064      C1065   1.411       .  A
C1064      H1069   1.084       .  S
C1065      C1066   1.409       .  A
C1066      C1067   1.509       .  S
C1067      H1071   1.111       .  S
C1067      H1072   1.109       .  S
C1067      H1073   1.110       .  S
C1070      H1074   1.110       .  S
C1070      H1075   1.110       .  S
C1070      H1076   1.111       .  S
C1077      C1078   1.409       .  A
C1077      C1082   1.412       .  A
C1077      H1084   1.084       .  S
C1078      C1079   1.412       .  A
C1079      C1080   1.405       .  A
C1079      C1086   1.507       .  S
C1080      C1081   1.409       .  A
C1080      H1085   1.084       .  S
C1081      C1082   1.416       .  A
C1082      C1083   1.506       .  S
C1083      H1087   1.111       .  S
C1083      H1088   1.110       .  S
C1083      H1089   1.110       .  S
C1086      H1090   1.110       .  S
C1086      H1091   1.109       .  S
C1086      H1092   1.111       .  S
C1093      C1094   1.410       .  A
C1093      C1098   1.416       .  A
C1093      H1100   1.084       .  S
C1094      C1095   1.416       .  A
C1095      C1096   1.404       .  A
C1095      C1102   1.507       .  S
C1096      C1097   1.404       .  A
C1096      H1101   1.085       .  S
C1097      C1098   1.416       .  A
C1098      C1099   1.505       .  S
C1099      H1103   1.111       .  S
C1099      H1104   1.110       .  S
C1099      H1105   1.110       .  S
C1102      H1106   1.110       .  S
C1102      H1107   1.108       .  S
C1102      H1108   1.111       .  S
C1109      C1110   1.404       .  A
C1109      C1114   1.407       .  A
C1109      H1116   1.079       .  S
C1110      C1111   1.415       .  A
C1111      C1112   1.409       .  A
C1111      C1118   1.507       .  S
C1112      C1113   1.406       .  A
C1112      H1117   1.083       .  S
C1113      C1114   1.412       .  A
C1114      C1115   1.506       .  S
C1115      H1119   1.111       .  S
C1115      H1120   1.110       .  S
C1115      H1121   1.111       .  S
C1118      H1122   1.111       .  S
C1118      H1123   1.109       .  S
C1118      H1124   1.111       .  S
C1125      C1126   1.408       .  A
C1125      C1130   1.398       .  A
C1125      H1132   1.084       .  S
C1126      C1127   1.419       .  A
C1127      C1128   1.404       .  A
C1127      C1134   1.507       .  S
C1128      C1129   1.400       .  A
C1128      H1133   1.084       .  S
C1129      C1130   1.405       .  A
C1130      C1131   1.507       .  S
C1131      H1135   1.111       .  S
C1131      H1136   1.110       .  S
C1131      H1137   1.110       .  S
C1134      H1138   1.110       .  S
C1134      H1139   1.110       .  S
C1134      H1140   1.111       .  S
C1141      C1142   1.401       .  A
C1141      C1146   1.394       .  A
C1141      H1148   1.084       .  S
C1142      C1143   1.407       .  A
C1143      C1144   1.393       .  A
C1143      C1150   1.508       .  S
C1144      C1145   1.401       .  A
C1144      H1149   1.084       .  S
C1145      C1146   1.409       .  A
C1146      C1147   1.508       .  S
C1147      H1151   1.109       .  S
C1147      H1152   1.110       .  S
C1147      H1153   1.110       .  S
C1150      H1154   1.109       .  S
C1150      H1155   1.111       .  S
C1150      H1156   1.111       .  S
C1157      C1158   1.410       .  A
C1157      C1162   1.398       .  A
C1157      H1164   1.085       .  S
C1158      C1159   1.406       .  A
C1159      C1160   1.394       .  A
C1159      C1166   1.509       .  S
C1160      C1161   1.410       .  A
C1160      H1165   1.085       .  S
C1161      C1162   1.404       .  A
C1162      C1163   1.507       .  S
C1163      H1167   1.111       .  S
C1163      H1168   1.109       .  S
C1163      H1169   1.110       .  S
C1166      H1170   1.109       .  S
C1166      H1171   1.110       .  S
C1166      H1172   1.111       .  S
C1173      C1174   1.398       .  A
C1173      C1178   1.395       .  A
C1173      H1180   1.084       .  S
C1174      C1175   1.407       .  A
C1175      C1176   1.396       .  A
C1175      C1182   1.507       .  S
C1176      C1177   1.400       .  A
C1176      H1181   1.084       .  S
C1177      C1178   1.407       .  A
C1178      C1179   1.507       .  S
C1179      H1183   1.111       .  S
C1179      H1184   1.110       .  S
C1179      H1185   1.110       .  S
C1182      H1186   1.110       .  S
C1182      H1187   1.111       .  S
C1182      H1188   1.111       .  S
C1189      C1190   1.403       .  A
C1189      C1194   1.389       .  A
C1189      H1196   1.084       .  S
C1190      C1191   1.414       .  A
C1191      C1192   1.397       .  A
C1191      C1198   1.509       .  S
C1192      C1193   1.400       .  A
C1192      H1197   1.085       .  S
C1193      C1194   1.410       .  A
C1194      C1195   1.512       .  S
C1195      H1199   1.111       .  S
C1195      H1200   1.109       .  S
C1195      H1201   1.110       .  S
C1198      H1202   1.110       .  S
C1198      H1203   1.108       .  S
C1198      H1204   1.111       .  S
C1205      C1206   1.406       .  A
C1205      C1210   1.399       .  A
C1205      H1212   1.084       .  S
C1206      C1207   1.408       .  A
C1207      C1208   1.394       .  A
C1207      C1214   1.510       .  S
C1208      C1209   1.405       .  A
C1208      H1213   1.084       .  S
C1209      C1210   1.412       .  A
C1210      C1211   1.508       .  S
C1211      H1215   1.111       .  S
C1211      H1216   1.110       .  S
C1211      H1217   1.110       .  S
C1214      H1218   1.108       .  S
C1214      H1219   1.110       .  S
C1214      H1220   1.111       .  S
C1221      C1222   1.412       .  A
C1221      C1226   1.411       .  A
C1221      H1228   1.084   1_545  S
C1222      C1223   1.414       .  A
C1223      C1224   1.409       .  A
C1223      C1230   1.507       .  S
C1224      C1225   1.413       .  A
C1224      H1229   1.084       .  S
C1225      C1226   1.416       .  A
C1226      C1227   1.507       .  S
C1227      H1231   1.111   1_545  S
C1227      H1232   1.110       .  S
C1227      H1233   1.110       .  S
C1230      H1234   1.106       .  S
C1230      H1235   1.111       .  S
C1230      H1236   1.110       .  S
C1237      C1238   1.406       .  A
C1237      C1242   1.399       .  A
C1237      H1244   1.084       .  S
C1238      C1239   1.419       .  A
C1239      C1240   1.402       .  A
C1239      C1246   1.508       .  S
C1240      C1241   1.403       .  A
C1240      H1245   1.085       .  S
C1241      C1242   1.410       .  A
C1242      C1243   1.506       .  S
C1243      H1247   1.111       .  S
C1243      H1248   1.110   1_565  S
C1243      H1249   1.110       .  S
C1246      H1250   1.110       .  S
C1246      H1251   1.109       .  S
C1246      H1252   1.111       .  S
C1253      C1254   1.401       .  A
C1253      C1258   1.393       .  A
C1253      H1260   1.084       .  S
C1254      C1255   1.412       .  A
C1255      C1256   1.385       .  A
C1255      C1262   1.511       .  S
C1256      C1257   1.396       .  A
C1256      H1261   1.084       .  S
C1257      C1258   1.407       .  A
C1258      C1259   1.508       .  S
C1259      H1263   1.111       .  S
C1259      H1264   1.110       .  S
C1259      H1265   1.111       .  S
C1262      H1266   1.107       .  S
C1262      H1267   1.110       .  S
C1262      H1268   1.111       .  S
C1269      C1270   1.412       .  A
C1269      C1274   1.409       .  A
C1269      H1276   1.084       .  S
C1270      C1271   1.417       .  A
C1271      C1272   1.409       .  A
C1271      C1278   1.507       .  S
C1272      C1273   1.409       .  A
C1272      H1277   1.084       .  S
C1273      C1274   1.414       .  A
C1274      C1275   1.507       .  S
C1275      H1279   1.110       .  S
C1275      H1280   1.106       .  S
C1275      H1281   1.110       .  S
C1278      H1282   1.109       .  S
C1278      H1283   1.110       .  S
C1278      H1284   1.111       .  S
C1285      C1286   1.407       .  A
C1285      C1290   1.410       .  A
C1285      H1292   1.084       .  S
C1286      C1287   1.409       .  A
C1287      C1288   1.405       .  A
C1287      C1294   1.508       .  S
C1288      C1289   1.413       .  A
C1288      H1293   1.083       .  S
C1289      C1290   1.420       .  A
C1290      C1291   1.506       .  S
C1291      H1295   1.111       .  S
C1291      H1296   1.110       .  S
C1291      H1297   1.110       .  S
C1294      H1298   1.110       .  S
C1294      H1299   1.110       .  S
C1294      H1300   1.111       .  S
C1301      C1302   1.408       .  A
C1301      C1306   1.411       .  A
C1301      H1308   1.084   1_556  S
C1302      C1303   1.411       .  A
C1303      C1304   1.403       .  A
C1303      C1310   1.508   1_565  S
C1304      C1305   1.408       .  A
C1304      H1309   1.085       .  S
C1305      C1306   1.414       .  A
C1306      C1307   1.506       .  S
C1307      H1311   1.111   1_556  S
C1307      H1312   1.110       .  S
C1307      H1313   1.110       .  S
C1310      H1314   1.110   1_545  S
C1310      H1315   1.110       .  S
C1310      H1316   1.111       .  S
C1317      C1318   1.413       .  A
C1317      C1322   1.408       .  A
C1317      H1324   1.082       .  S
C1318      C1319   1.427       .  A
C1319      C1320   1.407       .  A
C1319      C1326   1.509       .  S
C1320      C1321   1.402       .  A
C1320      H1325   1.084       .  S
C1321      C1322   1.411       .  A
C1322      C1323   1.506   1_565  S
C1323      H1327   1.111   1_545  S
C1323      H1328   1.109       .  S
C1323      H1329   1.110       .  S
C1326      H1330   1.110       .  S
C1326      H1331   1.111       .  S
C1326      H1332   1.108       .  S
C1333      C1334   1.406       .  A
C1333      C1338   1.411       .  A
C1333      H1340   1.085   1_545  S
C1334      C1335   1.414       .  A
C1335      C1336   1.410       .  A
C1335      C1342   1.506       .  S
C1336      C1337   1.407       .  A
C1336      H1341   1.084       .  S
C1337      C1338   1.421       .  A
C1338      C1339   1.508   1_545  S
C1339      H1343   1.111       .  S
C1339      H1344   1.110       .  S
C1339      H1345   1.109   1_565  S
C1342      H1346   1.110   1_556  S
C1342      H1347   1.110       .  S
C1342      H1348   1.110       .  S
C1349      C1350   1.408       .  A
C1349      C1354   1.411       .  A
C1349      H1356   1.085       .  S
C1350      C1351   1.409       .  A
C1351      C1352   1.408       .  A
C1351      C1358   1.507       .  S
C1352      C1353   1.414       .  A
C1352      H1357   1.084       .  S
C1353      C1354   1.419       .  A
C1354      C1355   1.507       .  S
C1355      H1359   1.111       .  S
C1355      H1360   1.110       .  S
C1355      H1361   1.110       .  S
C1358      H1362   1.110   1_545  S
C1358      H1363   1.110       .  S
C1358      H1364   1.111       .  S
C1365      C1366   1.407       .  A
C1365      C1370   1.412       .  A
C1365      H1372   1.084       .  S
C1366      C1367   1.411       .  A
C1367      C1368   1.404       .  A
C1367      C1374   1.507       .  S
C1368      C1369   1.406       .  A
C1368      H1373   1.084       .  S
C1369      C1370   1.415       .  A
C1370      C1371   1.506       .  S
C1371      H1375   1.111       .  S
C1371      H1376   1.110       .  S
C1371      H1377   1.109       .  S
C1374      H1378   1.110   1_565  S
C1374      H1379   1.110       .  S
C1374      H1380   1.111       .  S
C1381      C1382   1.413       .  A
C1381      C1386   1.406       .  A
C1381      H1388   1.084       .  S
C1382      C1383   1.413       .  A
C1383      C1384   1.413       .  A
C1383      C1390   1.505       .  S
C1384      C1385   1.414       .  A
C1384      H1389   1.084       .  S
C1385      C1386   1.409       .  A
C1386      C1387   1.507       .  S
C1387      H1391   1.111       .  S
C1387      H1392   1.109       .  S
C1387      H1393   1.110   1_556  S
C1390      H1394   1.110       .  S
C1390      H1395   1.110       .  S
C1390      H1396   1.111       .  S
C1397      C1398   1.404       .  A
C1397      C1402   1.405       .  A
C1397      H1404   1.085       .  S
C1398      C1399   1.411       .  A
C1399      C1400   1.412       .  A
C1399      C1406   1.505       .  S
C1400      C1401   1.411       .  A
C1400      H1405   1.084       .  S
C1401      C1402   1.422       .  A
C1402      C1403   1.508       .  S
C1403      H1407   1.111   1_554  S
C1403      H1408   1.110       .  S
C1403      H1409   1.107       .  S
C1406      H1410   1.110       .  S
C1406      H1411   1.110       .  S
C1406      H1412   1.111       .  S
C1413      C1414   1.403       .  A
C1413      C1418   1.411       .  A
C1413      H1420   1.084       .  S
C1414      C1415   1.417       .  A
C1415      C1416   1.414       .  A
C1415      C1422   1.506       .  S
C1416      C1417   1.408       .  A
C1416      H1421   1.084       .  S
C1417      C1418   1.422       .  A
C1418      C1419   1.508       .  S
C1419      H1423   1.111       .  S
C1419      H1424   1.109       .  S
C1419      H1425   1.110       .  S
C1422      H1426   1.110       .  S
C1422      H1427   1.110   1_554  S
C1422      H1428   1.111       .  S
C1429      C1430   1.403       .  A
C1429      C1434   1.410       .  A
C1429      H1436   1.084   1_556  S
C1430      C1431   1.417       .  A
C1431      C1432   1.410       .  A
C1431      C1438   1.506       .  S
C1432      C1433   1.406       .  A
C1432      H1437   1.084       .  S
C1433      C1434   1.422       .  A
C1434      C1435   1.509       .  S
C1435      H1439   1.111   1_556  S
C1435      H1440   1.110       .  S
C1435      H1441   1.109       .  S
C1438      H1442   1.110       .  S
C1438      H1443   1.109       .  S
C1438      H1444   1.111       .  S
C1445      C1446   1.399       .  A
C1445      C1450   1.401       .  A
C1445      H1452   1.084       .  S
C1446      C1447   1.404       .  A
C1447      C1448   1.392       .  A
C1447      C1454   1.509       .  S
C1448      C1449   1.404       .  A
C1448      H1453   1.084       .  S
C1449      C1450   1.416       .  A
C1450      C1451   1.507       .  S
C1451      H1455   1.111       .  S
C1451      H1456   1.110       .  S
C1451      H1457   1.110       .  S
C1454      H1458   1.110       .  S
C1454      H1459   1.110       .  S
C1454      H1460   1.111       .  S
C1461      C1462   1.408       .  A
C1461      C1466   1.397       .  A
C1461      H1468   1.084       .  S
C1462      C1463   1.411       .  A
C1463      C1464   1.396       .  A
C1463      C1470   1.510       .  S
C1464      C1465   1.408       .  A
C1464      H1469   1.084       .  S
C1465      C1466   1.408       .  A
C1466      C1467   1.508       .  S
C1467      H1471   1.111       .  S
C1467      H1472   1.110       .  S
C1467      H1473   1.109       .  S
C1470      H1474   1.110       .  S
C1470      H1475   1.108       .  S
C1470      H1476   1.111       .  S
C1477      C1478   1.409       .  A
C1477      C1482   1.397       .  A
C1477      H1484   1.084       .  S
C1478      C1479   1.416       .  A
C1479      C1480   1.400       .  A
C1479      C1486   1.509       .  S
C1480      C1481   1.404       .  A
C1480      H1485   1.084       .  S
C1481      C1482   1.408       .  A
C1482      C1483   1.508       .  S
C1483      H1487   1.111       .  S
C1483      H1488   1.108       .  S
C1483      H1489   1.110       .  S
C1486      H1490   1.109       .  S
C1486      H1491   1.110       .  S
C1486      H1492   1.111       .  S
C1493      C1494   1.404       .  A
C1493      C1498   1.401       .  A
C1493      H1500   1.085       .  S
C1494      C1495   1.404       .  A
C1495      C1496   1.396       .  A
C1495      C1502   1.507       .  S
C1496      C1497   1.405       .  A
C1496      H1501   1.082       .  S
C1497      C1498   1.408       .  A
C1498      C1499   1.506       .  S
C1499      H1503   1.111       .  S
C1499      H1504   1.110       .  S
C1499      H1505   1.111       .  S
C1502      H1506   1.110       .  S
C1502      H1507   1.109       .  S
C1502      H1508   1.108       .  S
C1509      C1510   1.402       .  A
C1509      C1514   1.394       .  A
C1509      H1516   1.085       .  S
C1510      C1511   1.408       .  A
C1511      C1512   1.397       .  A
C1511      C1518   1.507       .  S
C1512      C1513   1.408       .  A
C1512      H1517   1.086       .  S
C1513      C1514   1.410       .  A
C1514      C1515   1.505       .  S
C1515      H1519   1.111       .  S
C1515      H1520   1.111       .  S
C1515      H1521   1.109       .  S
C1518      H1522   1.105       .  S
C1518      H1523   1.110       .  S
C1518      H1524   1.111       .  S
C1525      C1526   1.404       .  A
C1525      C1530   1.398       .  A
C1525      H1532   1.084       .  S
C1526      C1527   1.408       .  A
C1527      C1528   1.401       .  A
C1527      C1534   1.507       .  S
C1528      C1529   1.410       .  A
C1528      H1533   1.084       .  S
C1529      C1530   1.408       .  A
C1530      C1531   1.504       .  S
C1531      H1535   1.111       .  S
C1531      H1536   1.110       .  S
C1531      H1537   1.110       .  S
C1534      H1538   1.110       .  S
C1534      H1539   1.110       .  S
C1534      H1540   1.111       .  S
C1541      C1542   1.399       .  A
C1541      C1546   1.390       .  A
C1541      H1548   1.086       .  S
C1542      C1543   1.401       .  A
C1543      C1544   1.393       .  A
C1543      C1550   1.506       .  S
C1544      C1545   1.405       .  A
C1544      H1549   1.085       .  S
C1545      C1546   1.407       .  A
C1546      C1547   1.508       .  S
C1547      H1551   1.111       .  S
C1547      H1552   1.110       .  S
C1547      H1553   1.107       .  S
C1550      H1554   1.110       .  S
C1550      H1555   1.110       .  S
C1550      H1556   1.111       .  S
C1557      C1558   1.410       .  A
C1557      C1562   1.397       .  A
C1557      H1564   1.084       .  S
C1558      C1559   1.419       .  A
C1559      C1560   1.399       .  A
C1559      C1566   1.508       .  S
C1560      C1561   1.400       .  A
C1560      H1565   1.084       .  S
C1561      C1562   1.409       .  A
C1562      C1563   1.509       .  S
C1563      H1567   1.110       .  S
C1563      H1568   1.109       .  S
C1563      H1569   1.111       .  S
C1566      H1570   1.110       .  S
C1566      H1571   1.103       .  S
C1566      H1572   1.106       .  S
C1573      C1574   1.407       .  A
C1573      C1578   1.404       .  A
C1573      H1580   1.085       .  S
C1574      C1575   1.419       .  A
C1575      C1576   1.407       .  A
C1575      C1582   1.508       .  S
C1576      C1577   1.404       .  A
C1576      H1581   1.084       .  S
C1577      C1578   1.413       .  A
C1578      C1579   1.507       .  S
C1579      H1583   1.111       .  S
C1579      H1584   1.108       .  S
C1579      H1585   1.109       .  S
C1582      H1586   1.110       .  S
C1582      H1587   1.111       .  S
C1582      H1588   1.111       .  S
C1589      C1590   1.404       .  A
C1589      C1594   1.406       .  A
C1589      H1596   1.085       .  S
C1590      C1591   1.411       .  A
C1591      C1592   1.413       .  A
C1591      C1598   1.505       .  S
C1592      C1593   1.412       .  A
C1592      H1597   1.084       .  S
C1593      C1594   1.422       .  A
C1594      C1595   1.509       .  S
C1595      H1599   1.111   1_554  S
C1595      H1600   1.110       .  S
C1595      H1601   1.109       .  S
C1598      H1602   1.110   1_455  S
C1598      H1603   1.110       .  S
C1598      H1604   1.111       .  S
C1605      C1606   1.403       .  A
C1605      C1610   1.409       .  A
C1605      H1612   1.084   1_556  S
C1606      C1607   1.418       .  A
C1607      C1608   1.409       .  A
C1607      C1614   1.507   1_655  S
C1608      C1609   1.403       .  A
C1608      H1613   1.084       .  S
C1609      C1610   1.418       .  A
C1610      C1611   1.508       .  S
C1611      H1615   1.111   1_556  S
C1611      H1616   1.110       .  S
C1611      H1617   1.109       .  S
C1614      H1618   1.110       .  S
C1614      H1619   1.109       .  S
C1614      H1620   1.110   1_455  S
C1621      C1622   1.400       .  A
C1621      C1626   1.400       .  A
C1621      H1628   1.084       .  S
C1622      C1623   1.415       .  A
C1623      C1624   1.399       .  A
C1623      C1630   1.507       .  S
C1624      C1625   1.402       .  A
C1624      H1629   1.084       .  S
C1625      C1626   1.414       .  A
C1626      C1627   1.505       .  S
C1627      H1631   1.110   1_455  S
C1627      H1632   1.111       .  S
C1627      H1633   1.110       .  S
C1630      H1634   1.110       .  S
C1630      H1635   1.111       .  S
C1630      H1636   1.110       .  S
C1637      C1638   1.409       .  A
C1637      C1642   1.401       .  A
C1637      H1644   1.083       .  S
C1638      C1639   1.412       .  A
C1639      C1640   1.393       .  A
C1639      C1646   1.505       .  S
C1640      C1641   1.401       .  A
C1640      H1645   1.085       .  S
C1641      C1642   1.407       .  A
C1642      C1643   1.506       .  S
C1643      H1647   1.109       .  S
C1643      H1648   1.110       .  S
C1643      H1649   1.110       .  S
C1646      H1650   1.111       .  S
C1646      H1651   1.107       .  S
C1646      H1652   1.110       .  S
C1653      C1654   1.403       .  A
C1653      C1658   1.399       .  A
C1653      H1660   1.085       .  S
C1654      C1655   1.400       .  A
C1655      C1656   1.390       .  A
C1655      C1662   1.507       .  S
C1656      C1657   1.410       .  A
C1656      H1661   1.084       .  S
C1657      C1658   1.413       .  A
C1658      C1659   1.507       .  S
C1659      H1663   1.110       .  S
C1659      H1664   1.110       .  S
C1659      H1665   1.110       .  S
C1662      H1666   1.109       .  S
C1662      H1667   1.110       .  S
C1662      H1668   1.111       .  S
C1669      C1670   1.404       .  A
C1669      C1674   1.405       .  A
C1669      H1676   1.084       .  S
C1670      C1671   1.414       .  A
C1671      C1672   1.403       .  A
C1671      C1678   1.508   1_655  S
C1672      C1673   1.406       .  A
C1672      H1677   1.084       .  S
C1673      C1674   1.419       .  A
C1674      C1675   1.508       .  S
C1675      H1679   1.110       .  S
C1675      H1680   1.110       .  S
C1675      H1681   1.110       .  S
C1678      H1682   1.107       .  S
C1678      H1683   1.110       .  S
C1678      H1684   1.110       .  S
C1685      C1686   1.407       .  A
C1685      C1690   1.409       .  A
C1685      H1692   1.084       .  S
C1686      C1687   1.428       .  A
C1687      C1688   1.405       .  A
C1687      C1694   1.511       .  S
C1688      C1689   1.397       .  A
C1688      H1693   1.085       .  S
C1689      C1690   1.417       .  A
C1690      C1691   1.506   1_455  S
C1691      H1695   1.111       .  S
C1691      H1696   1.109       .  S
C1691      H1697   1.110       .  S
C1694      H1698   1.109       .  S
C1694      H1699   1.110       .  S
C1694      H1700   1.111       .  S
C1701      C1702   1.411       .  A
C1701      C1706   1.414       .  A
C1701      H1708   1.084       .  S
C1702      C1703   1.429       .  A
C1703      C1704   1.415       .  A
C1703      C1710   1.509       .  S
C1704      C1705   1.403       .  A
C1704      H1709   1.084       .  S
C1705      C1706   1.415       .  A
C1706      C1707   1.506       .  S
C1707      H1711   1.111   1_655  S
C1707      H1712   1.110   1_655  S
C1707      H1713   1.110       .  S
C1710      H1714   1.110       .  S
C1710      H1715   1.111       .  S
C1710      H1716   1.111       .  S
C1717      C1718   1.405       .  A
C1717      C1722   1.408       .  A
C1717      H1724   1.084       .  S
C1718      C1719   1.423       .  A
C1719      C1720   1.405       .  A
C1719      C1726   1.510       .  S
C1720      C1721   1.399       .  A
C1720      H1725   1.084   1_455  S
C1721      C1722   1.415       .  A
C1722      C1723   1.506   1_556  S
C1723      H1727   1.111       .  S
C1723      H1728   1.110       .  S
C1723      H1729   1.109       .  S
C1726      H1730   1.109       .  S
C1726      H1731   1.110       .  S
C1726      H1732   1.111   1_455  S
C1733      C1734   1.406       .  A
C1733      C1738   1.414       .  A
C1733      H1740   1.084       .  S
C1734      C1735   1.413       .  A
C1735      C1736   1.407       .  A
C1735      C1742   1.507       .  S
C1736      C1737   1.407       .  A
C1736      H1741   1.084       .  S
C1737      C1738   1.421       .  A
C1738      C1739   1.507       .  S
C1739      H1743   1.111       .  S
C1739      H1744   1.110       .  S
C1739      H1745   1.109       .  S
C1742      H1746   1.109       .  S
C1742      H1747   1.110       .  S
C1742      H1748   1.111       .  S
C1749      C1750   1.399       .  A
C1749      C1754   1.406       .  A
C1749      H1756   1.085       .  S
C1750      C1751   1.411       .  A
C1751      C1752   1.408       .  A
C1751      C1758   1.506       .  S
C1752      C1753   1.411       .  A
C1752      H1757   1.084       .  S
C1753      C1754   1.428       .  A
C1754      C1755   1.510       .  S
C1755      H1759   1.111       .  S
C1755      H1760   1.110       .  S
C1755      H1761   1.110       .  S
C1758      H1762   1.110       .  S
C1758      H1763   1.110   1_655  S
C1758      H1764   1.111   1_655  S
C1765      C1766   1.413       .  A
C1765      C1770   1.408       .  A
C1765      H1772   1.084       .  S
C1766      C1767   1.426       .  A
C1767      C1768   1.408       .  A
C1767      C1774   1.509       .  S
C1768      C1769   1.403       .  A
C1768      H1773   1.085   1_554  S
C1769      C1770   1.412       .  A
C1770      C1771   1.507       .  S
C1771      H1775   1.111       .  S
C1771      H1776   1.108       .  S
C1771      H1777   1.110       .  S
C1774      H1778   1.110       .  S
C1774      H1779   1.110       .  S
C1774      H1780   1.111   1_554  S
C1781      C1782   1.409       .  A
C1781      C1786   1.411       .  A
C1781      H1788   1.084       .  S
C1782      C1783   1.411       .  A
C1783      C1784   1.408       .  A
C1783      C1790   1.506       .  S
C1784      C1785   1.409       .  A
C1784      H1789   1.084       .  S
C1785      C1786   1.416       .  A
C1786      C1787   1.507       .  S
C1787      H1791   1.111       .  S
C1787      H1792   1.110       .  S
C1787      H1793   1.111       .  S
C1790      H1794   1.110   1_556  S
C1790      H1795   1.110       .  S
C1790      H1796   1.111       .  S
C1797      C1798   1.408       .  A
C1797      C1802   1.406       .  A
C1797      H1804   1.084   1_556  S
C1798      C1799   1.409       .  A
C1799      C1800   1.405       .  A
C1799      C1806   1.507       .  S
C1800      C1801   1.411       .  A
C1800      H1805   1.084       .  S
C1801      C1802   1.415       .  A
C1802      C1803   1.507       .  S
C1803      H1807   1.111       .  S
C1803      H1808   1.111       .  S
C1803      H1809   1.110       .  S
C1806      H1810   1.110       .  S
C1806      H1811   1.110       .  S
C1806      H1812   1.111       .  S
C1813      C1814   1.407       .  A
C1813      C1818   1.409       .  A
C1813      H1820   1.085       .  S
C1814      C1815   1.409       .  A
C1815      C1816   1.408       .  A
C1815      C1822   1.506       .  S
C1816      C1817   1.412       .  A
C1816      H1821   1.082       .  S
C1817      C1818   1.421       .  A
C1818      C1819   1.509       .  S
C1819      H1823   1.111   1_554  S
C1819      H1824   1.107       .  S
C1819      H1825   1.110       .  S
C1822      H1826   1.110       .  S
C1822      H1827   1.110       .  S
C1822      H1828   1.111       .  S
