geometry optimzed in LAMMPS
_audit_creation_date              2020-11-30 
_audit_creation_method            'lammps2cif' 
_symmetry_space_group_name_H-M    'P1' 
_symmetry_Int_Tables_number       1 
_symmetry_cell_setting            triclinic 
loop_ 
_symmetry_equiv_pos_as_xyz 
  x,y,z 
_cell_length_a                    38.62499941 
_cell_length_b                    38.68295831102538 
_cell_length_c                    47.7211030119145 
_cell_angle_alpha                 89.9953183437397 
_cell_angle_beta                  90.1169223118307 
_cell_angle_gamma                 120.00777528523476 
loop_ 
_atom_site_label 
_atom_site_type_symbol 
_atom_site_fract_x 
_atom_site_fract_y 
_atom_site_fract_z 
_atom_site_charge 
C1          C  0.29790175  0.49767887  0.71492036     0.78900
N2          N  0.29729337  0.01537051  0.73976899    -0.79400
C3          C  0.33177050  0.04796340  0.74929054     0.81400
N4          N  0.36567943  0.06145761  0.73455140    -0.79300
C5          C  0.36604292  0.04395876  0.71039276     0.81500
N6          N  0.33257599  0.01219622  0.70062475    -0.81000
C7          C  0.08907978  0.13897509  0.66684845     0.78900
N8          N  0.08742596  0.12206898  0.64112261    -0.79400
C9          C  0.05155457  0.09106020  0.63164929     0.81400
N10         N  0.01862808  0.07869575  0.64718535    -0.79300
C11         C  0.02049692  0.09543882  0.67212260     0.81500
N12         N  0.05522392  0.12532235  0.68197516    -0.81000
C13         C  0.28451732  0.47255597  0.83334244     0.78900
N14         N  0.26730660  0.45597897  0.80797300    -0.79400
C15         C  0.27019059  0.42430659  0.79788282     0.81400
N16         N  0.29057558  0.41079507  0.81254993    -0.79300
C17         C  0.30681410  0.42603502  0.83764368     0.81500
N18         N  0.30400138  0.45715391  0.84784799    -0.81000
C19         C  0.43907988  0.33491923  0.87933504     0.78900
N20         N  0.45002254  0.34906676  0.90625875    -0.79400
C21         C  0.44490215  0.37992934  0.91540367     0.81400
N22         N  0.42829804  0.39483519  0.89820450    -0.79300
C23         C  0.41881254  0.38222903  0.87155476     0.81500
N24         N  0.42419143  0.35232502  0.86223793    -0.81000
C25         C  0.44351062  0.30396861  0.50003790     0.78900
N26         N  0.46426551  0.28929662  0.51375241    -0.79400
C27         C  0.46656218  0.25804253  0.50321843     0.81400
N28         N  0.44881608  0.24152917  0.47884955    -0.79300
C29         C  0.42780950  0.25487596  0.46471539     0.81500
N30         N  0.42515979  0.28672344  0.47501311    -0.81000
C31         C  0.10291443  0.16914309  0.54561498     0.78900
N32         N  0.12044236  0.18698155  0.57068341    -0.79400
C33         C  0.11617273  0.21807336  0.58070270     0.81400
N34         N  0.09416830  0.23001169  0.56628293    -0.79300
C35         C  0.07695013  0.21267537  0.54190929     0.81500
N36         N  0.08106783  0.18233844  0.53163144    -0.81000
C37         C  0.42123625  0.30464541  0.00138277     0.78900
N38         N  0.38587001  0.29327094  0.01433418    -0.79400
C39         C  0.35128152  0.26437976  0.00316211     0.81400
N40         N  0.35126607  0.24648023  0.97916340    -0.79300
C41         C  0.38548952  0.25650108  0.96584107     0.81500
N42         N  0.42113445  0.28635745  0.97659221    -0.81000
C43         C  0.12619720  0.16798490  0.04492634     0.78900
N44         N  0.12625728  0.18496630  0.07023673    -0.79400
C45         C  0.16105632  0.21699435  0.07997393     0.81400
N46         N  0.19472930  0.23097164  0.06486454    -0.79300
C47         C  0.19473796  0.21457563  0.04011256     0.81500
N48         N  0.16084841  0.18299309  0.03026019    -0.81000
C49         C  0.45839857  0.33396413  0.37911231     0.78900
N50         N  0.49312816  0.34888182  0.36451807    -0.79400
C51         C  0.02698975  0.38064795  0.37426411     0.81400
N52         N  0.02694558  0.39722764  0.39888685    -0.79300
C53         C  0.49337275  0.38329016  0.41404713     0.81500
N54         N  0.45849469  0.35111081  0.40440776    -0.81000
C55         C  0.25231498  0.47041156  0.33288022     0.78900
N56         N  0.21769104  0.45766128  0.34722621    -0.79400
C57         C  0.18295054  0.42729398  0.33739100     0.81400
N58         N  0.18201618  0.40957761  0.31305111    -0.79300
C59         C  0.21560772  0.42131247  0.29828480     0.81500
N60         N  0.25128525  0.45236314  0.30787181    -0.81000
C61         C  0.11010592  0.13878039  0.16624077     0.78900
N62         N  0.13258365  0.12608628  0.17988015    -0.79400
C63         C  0.13729170  0.09650181  0.16912140     0.81400
N64         N  0.12007975  0.07939571  0.14476149    -0.79300
C65         C  0.09748367  0.09095836  0.13076425     0.81500
N66         N  0.09253302  0.12132129  0.14116473    -0.81000
C67         C  0.26844570  0.00194038  0.21066804     0.78900
N68         N  0.24734894  0.01531035  0.19580839    -0.79400
C69         C  0.24343870  0.04606976  0.20546423     0.81400
N70         N  0.25958183  0.06325209  0.23007348    -0.79300
C71         C  0.28012233  0.05067947  0.24549070     0.81500
N72         N  0.28458742  0.01948081  0.23606787    -0.81000
C73         C  0.04013727  0.25450074  0.83503702     0.78900
N74         N  0.05557430  0.28904261  0.84992293    -0.79400
C75         C  0.08588392  0.32349756  0.83967363     0.81400
N76         N  0.10036559  0.32344302  0.81408905    -0.79300
C77         C  0.08721310  0.28989011  0.79906182     0.81500
N78         N  0.05630295  0.25472722  0.80928350    -0.81000
C79         C  0.17414596  0.04984444  0.87847903     0.78900
N80         N  0.15814766  0.04883097  0.90443082    -0.79400
C81         C  0.12753059  0.01330005  0.91447848     0.81400
N82         N  0.11466117  0.48006198  0.89923910    -0.79300
C83         C  0.12897905  0.48066979  0.87350510     0.81500
N84         N  0.15873633  0.01556905  0.86325474    -0.81000
C85         C  0.37545992  0.40048978  0.66931307     0.78900
N86         N  0.39254876  0.41642232  0.64386078    -0.79400
C87         C  0.42403366  0.41251137  0.63437811     0.81400
N88         N  0.43738636  0.39260450  0.64984688    -0.79300
C89         C  0.42076956  0.37694933  0.67467987     0.81500
N90         N  0.38969582  0.38035011  0.68429748    -0.81000
C91         C  0.01188342  0.24269402  0.71433484     0.78900
N92         N  0.49927029  0.26563155  0.70130673    -0.79400
C93         C  0.46899278  0.26927944  0.71203006     0.81400
N94         N  0.45121816  0.25067702  0.73581437    -0.79300
C95         C  0.46274362  0.22770799  0.74931143     0.81500
N96         N  0.49374005  0.22370041  0.73889269    -0.81000
C97         C  0.20479177  0.08816996  0.49993556     0.78900
N98         N  0.22107513  0.08846628  0.47427145    -0.79400
C99         C  0.25366291  0.12302911  0.46487321     0.81400
N100        N  0.26889621  0.15617059  0.48065047    -0.79300
C101        C  0.25318428  0.15607261  0.50567989     0.81500
N102        N  0.22101256  0.12241925  0.51519276    -0.81000
C103        C  0.33980299  0.38184220  0.54423027     0.78900
N104        N  0.32699208  0.34726779  0.52975821    -0.79400
C105        C  0.29667148  0.31249051  0.53956296     0.81400
N106        N  0.27918451  0.31158821  0.56405028    -0.79300
C107        C  0.29112413  0.34516577  0.57896817     0.81500
N108        N  0.32202481  0.38073448  0.56933368    -0.81000
C109        C  0.20487891  0.06390064  0.00038191     0.78900
N110        N  0.21618382  0.04040225  0.01414101    -0.79400
C111        C  0.24524829  0.03445000  0.00370709     0.81400
N112        N  0.26333571  0.05150214  0.97955486    -0.79300
C113        C  0.25323261  0.07509560  0.96540185     0.81500
N114        N  0.22330710  0.08120701  0.97548362    -0.81000
C115        C  0.34183807  0.40694036  0.04656703     0.78900
N116        N  0.32715543  0.42737824  0.03252823    -0.79400
C117        C  0.29575515  0.42953081  0.04275793     0.81400
N118        N  0.27922028  0.41227094  0.06712519    -0.79300
C119        C  0.29279873  0.39182009  0.08158403     0.81500
N120        N  0.32467402  0.38902279  0.07160197    -0.81000
C121        C  0.17415458  0.07629232  0.37912961     0.78900
N122        N  0.15619925  0.05734575  0.40378164    -0.79400
C123        C  0.12555848  0.06166407  0.41461419     0.81400
N124        N  0.11424586  0.08505682  0.40137390    -0.79300
C125        C  0.13178578  0.10367323  0.37746155     0.81500
N126        N  0.16167262  0.09956575  0.36638398    -0.81000
C127        C  0.03957982  0.23601168  0.33480150     0.78900
N128        N  0.05507008  0.21797262  0.35082615    -0.79400
C129        C  0.08637752  0.21455103  0.34171479     0.81400
N130        N  0.10226090  0.22849947  0.31636917    -0.79300
C131        C  0.08793433  0.24658256  0.29986877     0.81500
N132        N  0.05601150  0.25024731  0.30883713    -0.81000
C133        C  0.00481396  0.21919546  0.20937569     0.78900
N134        N  0.49045587  0.18536570  0.19389495    -0.79400
C135        C  0.45974944  0.15068989  0.20327687     0.81400
N136        N  0.44327654  0.14892237  0.22838634    -0.79300
C137        C  0.45642862  0.18172443  0.24436124     0.81500
N138        N  0.48787259  0.21740773  0.23509639    -0.81000
C139        C  0.36773896  0.42443950  0.16511407     0.78900
N140        N  0.38648333  0.42408391  0.14069161    -0.79400
C141        C  0.41631547  0.45951391  0.12984509     0.81400
N142        N  0.42591803  0.49400503  0.14279180    -0.79300
C143        C  0.40748074  0.49437870  0.16645269     0.81500
N144        N  0.37863947  0.45996705  0.17767662    -0.81000
C145        C  0.27092867  0.25368380  0.33556498     0.78900
N146        N  0.28928388  0.28730289  0.35146069    -0.79400
C147        C  0.29219423  0.32176954  0.34238404     0.81400
N148        N  0.27779017  0.32345665  0.31710461    -0.79300
C149        C  0.25958779  0.29087065  0.30074861     0.81500
N150        N  0.25614556  0.25552565  0.30976987    -0.81000
C151        C  0.42771516  0.04752275  0.38184756     0.78900
N152        N  0.40301432  0.01152740  0.36984449    -0.79400
C153        C  0.39833895  0.47761177  0.38143500     0.81400
N154        N  0.41789460  0.47900169  0.40494663    -0.79300
C155        C  0.44299207  0.01387359  0.41728636     0.81500
N156        N  0.44792056  0.04887721  0.40605195    -0.81000
C157        C  0.27367518  0.21814761  0.71189800     0.78900
N158        N  0.25590361  0.18410185  0.69640119    -0.79400
C159        C  0.25223938  0.14957599  0.70619596     0.81400
N160        N  0.26658365  0.14916334  0.73179687    -0.79300
C161        C  0.28562729  0.18230523  0.74746526     0.81500
N162        N  0.28898782  0.21737558  0.73781370    -0.81000
C163        C  0.10986490  0.42301453  0.66961046     0.78900
N164        N  0.09500231  0.42415488  0.64357567    -0.79400
C165        C  0.09942402  0.45956437  0.63359595     0.81400
N166        N  0.11950673  0.49284978  0.64898409    -0.79300
C167        C  0.13376792  0.49226261  0.67461205     0.81500
N168        N  0.12852674  0.45727399  0.68490116    -0.81000
C169        C  0.41635745  0.05950665  0.49781245     0.78900
N170        N  0.38072642  0.03744869  0.51097224    -0.79400
C171        C  0.34691238  0.03441913  0.50019959     0.81400
N172        N  0.34802160  0.05274024  0.47615262    -0.79300
C173        C  0.38254486  0.07502058  0.46251603     0.81500
N174        N  0.41737102  0.07841315  0.47306686    -0.81000
C175        C  0.12359454  0.40166932  0.54431335     0.78900
N176        N  0.15722924  0.42020506  0.52861357    -0.79400
C177        C  0.19194713  0.42398841  0.53801310     0.81400
N178        N  0.19387610  0.40980265  0.56325322    -0.79300
C179        C  0.16128658  0.39098496  0.57940369     0.81500
N180        N  0.12558105  0.38700400  0.57020693    -0.81000
C181        C  0.29155441  0.23900802  0.21013039     0.78900
N182        N  0.32667425  0.26221789  0.19654512    -0.79400
C183        C  0.36154745  0.26807215  0.20743763     0.81400
N184        N  0.36201822  0.25135246  0.23190060    -0.79300
C185        C  0.32800233  0.22818398  0.24584558     0.81500
N186        N  0.29223595  0.22210445  0.23527305    -0.81000
C187        C  0.08691264  0.39831634  0.16666134     0.78900
N188        N  0.08717407  0.41646977  0.14183908    -0.79400
C189        C  0.05262888  0.41486856  0.13265697     0.81400
N190        N  0.01898500  0.39519834  0.14774430    -0.79300
C191        C  0.01853318  0.37731830  0.17186676     0.81500
N192        N  0.05210549  0.37833321  0.18117373    -0.81000
C193        C  0.44118518  0.08917684  0.00338421     0.78900
N194        N  0.42512039  0.09028213  0.97798529    -0.79400
C195        C  0.42901745  0.12558975  0.96853301     0.81400
N196        N  0.44898390  0.15886994  0.98392863    -0.79300
C197        C  0.46489750  0.15811186  0.00871989     0.81500
N198        N  0.46154893  0.12363401  0.01834937    -0.81000
C199        C  0.10012121  0.38371302  0.04681113     0.78900
N200        N  0.07906687  0.34882499  0.03255641    -0.79400
C201        C  0.07695458  0.31499838  0.04215465     0.81400
N202        N  0.09483558  0.31527342  0.06623213    -0.79300
C203        C  0.11559653  0.34901619  0.08101841     0.81500
N204        N  0.11830994  0.38387535  0.07161727    -0.81000
C205        C  0.25383999  0.22581358  0.83179250     0.78900
N206        N  0.25455848  0.24438524  0.80704091    -0.79400
C207        C  0.21952285  0.24034808  0.79658761     0.81400
N208        N  0.18506976  0.21736926  0.81012341    -0.79300
C209        C  0.18451286  0.19906172  0.83403639     0.81500
N210        N  0.21849688  0.20313653  0.84493643    -0.81000
C211        C  0.46112698  0.07350217  0.87844830     0.78900
N212        N  0.49548514  0.09312388  0.86355182    -0.79400
C213        C  0.02965695  0.09641522  0.87365601     0.81400
N214        N  0.03035206  0.08114707  0.89864484    -0.79300
C215        C  0.49702279  0.06178624  0.91393508     0.81500
N216        N  0.46190922  0.05808215  0.90416973    -0.81000
O217        O  0.36987461  0.09035060  0.78659684    -0.81400
O218        O  0.23433031  0.11247591  0.88644972    -0.83000
O219        O  0.28162135  0.03229609  0.82620662    -0.80000
O220        O  0.28649705  0.14242074  0.78528928    -0.78400
O221        O  0.33314322  0.20923998  0.78376390    -0.80200
O222        O  0.30779361  0.02422374  0.86708272    -0.81100
O223        O  0.22770841  0.07796897  0.84584935    -0.82400
O224        O  0.30291886  0.06944512  0.78368875    -0.82700
Eu225      Eu  0.29497559  0.10213915  0.82413160     2.39200
O226        O  0.30933206  0.16426195  0.84089512    -0.90200
O227        O  0.34630544  0.09118739  0.84099732    -0.93800
C228        C  0.33459498  0.06992724  0.77508878     1.00800
C229        C  0.21372711  0.08341679  0.86921472     1.00700
C230        C  0.29014802  0.01149573  0.84311022     1.00600
C231        C  0.30230790  0.17809876  0.77420817     0.98500
H232        H  0.27290329  0.07766518  0.88073382     0.28200
O233        O  0.29629202  0.10069466  0.87353556    -1.02600
H234        H  0.35875574  0.15244731  0.78823875     0.28300
O235        O  0.35855684  0.15238766  0.80841902    -1.05200
O236        O  0.34602500  0.21251325  0.92906830    -0.82400
O237        O  0.48025930  0.19178981  0.82765603    -0.81900
O238        O  0.29718363  0.07891223  0.92889823    -0.80400
O239        O  0.31742521  0.23094135  0.82566124    -0.83700
O240        O  0.42100249  0.22449118  0.78659384    -0.81600
O241        O  0.39921253  0.07122215  0.88679642    -0.80200
O242        O  0.42859896  0.16526458  0.93065266    -0.81700
O243        O  0.44005328  0.27461446  0.88782348    -0.83700
O244        O  0.38414006  0.09786906  0.93146519    -0.80400
O245        O  0.41521379  0.28236275  0.84621163    -0.83100
O246        O  0.27490736  0.12386498  0.93038498    -0.78800
O247        O  0.43183395  0.09601948  0.84525160    -0.78800
O248        O  0.44110962  0.17799456  0.78400528    -0.78500
O249        O  0.28217092  0.20349149  0.86591976    -0.82000
O250        O  0.41354282  0.23565549  0.93080298    -0.81400
O251        O  0.48669098  0.22744559  0.86755051    -0.79700
Eu252      Eu  0.30680958  0.16328237  0.88994173     2.39800
Eu253      Eu  0.40874566  0.13961506  0.82493889     2.39600
Eu254      Eu  0.34670415  0.09001372  0.89002543     2.38400
Eu255      Eu  0.37204747  0.21547637  0.82475409     2.39900
Eu256      Eu  0.42058658  0.20337507  0.89038024     2.39800
O257        O  0.42119980  0.20266230  0.84120377    -0.94100
O258        O  0.35798224  0.15221452  0.90605463    -0.93000
C259        C  0.38171631  0.23393114  0.94011297     1.01000
C260        C  0.50056740  0.22143786  0.84440540     0.99700
C261        C  0.27608120  0.09352944  0.93975372     0.99100
C262        C  0.28767019  0.22169367  0.84213621     1.01100
C263        C  0.44093386  0.20910461  0.77516348     1.00100
C264        C  0.42736859  0.07846356  0.86914422     0.98900
C265        C  0.41327095  0.12965757  0.94165554     0.99000
C266        C  0.43307321  0.29563661  0.87014931     1.01600
H267        H  0.43290893  0.14240671  0.88181836     0.29000
O268        O  0.40969515  0.14231511  0.87430825    -1.06300
H269        H  0.36817402  0.23680466  0.88101549     0.31000
O270        O  0.36819584  0.21356546  0.87396333    -1.08900
O271        O  0.44734710  0.42400387  0.95171159    -0.81400
O272        O  0.10471550  0.44738338  0.05402343    -0.83000
O273        O  0.08375803  0.47328268  0.95126342    -0.80000
O274        O  0.48475234  0.36326141  0.99389812    -0.78400
O275        O  0.45070882  0.35690441  0.03463161    -0.80200
O276        O  0.10703183  0.04071576  0.95010622    -0.81100
O277        O  0.07424241  0.41098180  0.01462154    -0.82400
O278        O  0.49188750  0.40103959  0.95149311    -0.82700
Eu279      Eu  0.03415390  0.43554255  0.99040930     2.39200
O280        O  0.03539802  0.43749062  0.03952751    -0.90200
O281        O  0.02241713  0.48627985  0.97408650    -0.93800
C282        C  0.46161542  0.40206983  0.94168487     1.00800
C283        C  0.09431738  0.41713486  0.03764835     1.00700
C284        C  0.10546080  0.50907029  0.94059536     1.00600
C285        C  0.45578924  0.34299920  0.01113716     0.98500
H286        H  0.10779283  0.49676058  0.99920196     0.28200
O287        O  0.08450336  0.49669850  0.00635074    -1.02600
H288        H  0.44880886  0.40160873  0.99976979     0.28300
O289        O  0.47177058  0.42550205  0.00673046    -1.05200
O290        O  0.09541918  0.04991844  0.09335433    -0.82400
O291        O  0.43854139  0.02649883  0.99436201    -0.81900
O292        O  0.14655233  0.06974477  0.99262990    -0.80400
O293        O  0.51340427  0.41619413  0.09490642    -0.83700
O294        O  0.40146421  0.40347288  0.05346957    -0.81600
O295        O  0.03626298  0.05887955  0.95089623    -0.80200
O296        O  0.06303830  0.10842824  0.05232203    -0.81700
O297        O  0.45981683  0.99807551  0.09300374    -0.83700
O298        O  0.09912177  0.11445217  0.01279780    -0.80400
O299        O  0.43990614  0.43154555  0.09613750    -0.83100
O300        O  0.15338651  0.04339217  0.03386177    -0.78800
O301        O  0.46864894  0.01473262  0.94965655    -0.78800
O302        O  0.39502905  0.43415509  0.01433835    -0.78500
O303        O  0.08028807  0.46267974  0.09682835    -0.82000
O304        O  0.04831555  0.06939218  0.09583653    -0.81400
O305        O  0.46629329  0.06053399  0.03511603    -0.79700
Eu306      Eu  0.08658492  0.50055349  0.05550426     2.39800
Eu307      Eu  0.45973949  0.47498363  0.99016326     2.39600
Eu308      Eu  0.07425741  0.04876097  0.98998439     2.38400
Eu309      Eu  0.47320847  0.42380864  0.05596772     2.39900
Eu310      Eu  0.00987788  0.03705442  0.05503818     2.39800
O311        O  0.46101055  0.47450084  0.03926197    -0.94100
O312        O  0.07305825  0.04916434  0.03905335    -0.93000
C313        C  0.07960521  0.06950516  0.10471463     1.01000
C314        C  0.44696728  0.05533831  0.01187440     0.99700
C315        C  0.16694398  0.06122445  0.00999889     0.99100
C316        C  0.04895854  0.43203197  0.10620409     1.01100
C317        C  0.38129607  0.41360994  0.03718767     1.00100
C318        C  0.00058243  0.04442877  0.94010490     0.98900
C319        C  0.09302881  0.12844204  0.03577934     0.99000
C320        C  0.43954226  0.46283725  0.10450701     1.01600
H321        H  0.01164591  0.06068948  0.99853856     0.29000
O322        O  0.01251860  0.03782552  0.00577988    -1.06300
H323        H  0.02320053  0.48774577  0.09190899     0.31000
O324        O  0.02324224  0.48738609  0.07164958    -1.08900
O325        O  0.42563918  0.21440209  0.42666878    -0.81400
O326        O  0.26971865  0.19199057  0.32616005    -0.83000
O327        O  0.39500887  0.27406694  0.38614410    -0.80000
O328        O  0.29311893  0.16250543  0.42674465    -0.78400
O329        O  0.27261822  0.09567892  0.42816726    -0.80200
O330        O  0.43082972  0.28107633  0.34628443    -0.81100
O331        O  0.29698690  0.22553089  0.36717960    -0.82400
O332        O  0.37915374  0.23469694  0.42910999    -0.82700
Eu333      Eu  0.34112365  0.20266758  0.38781714     2.39200
O334        O  0.29225862  0.14040758  0.37129923    -0.90200
O335        O  0.40428961  0.21492928  0.37167966    -0.93800
C336        C  0.41004016  0.23413155  0.43822991     1.00800
C337        C  0.27767119  0.22040064  0.34385630     1.00700
C338        C  0.42498110  0.29452344  0.36964762     1.00600
C339        C  0.27347516  0.12691729  0.43788318     0.98500
H340        H  0.34323394  0.22715345  0.33128339     0.28200
O341        O  0.34419081  0.20432768  0.33841949    -1.02600
H342        H  0.35440812  0.15212541  0.42365699     0.28300
O343        O  0.35451391  0.15252995  0.40349014    -1.05200
O344        O  0.28205398  0.09306679  0.28262867    -0.82400
O345        O  0.43583453  0.11291196  0.38678815    -0.81900
O346        O  0.36739049  0.22538860  0.28320499    -0.80400
O347        O  0.23290045  0.07071242  0.38522838    -0.83700
O348        O  0.34419815  0.07906294  0.42504955    -0.81600
O349        O  0.47881896  0.23746969  0.32581437    -0.80200
O350        O  0.41489852  0.14104559  0.28206510    -0.81700
O351        O  0.31553756  0.02983227  0.32460238    -0.83700
O352        O  0.43715482  0.20831938  0.28134853    -0.80400
O353        O  0.28160773  0.02307258  0.36543197    -0.83100
O354        O  0.29993413  0.18074724  0.28153319    -0.78800
O355        O  0.48540612  0.21029177  0.36672218    -0.78800
O356        O  0.41089652  0.12573213  0.42817993    -0.78500
O357        O  0.22621170  0.10052312  0.34574602    -0.82000
O358        O  0.32691097  0.07047819  0.28163899    -0.81400
O359        O  0.40512801  0.07602893  0.34756329    -0.79700
Eu360      Eu  0.29173499  0.14151652  0.32218137     2.39800
Eu361      Eu  0.41823252  0.16640501  0.38781656     2.39600
Eu362      Eu  0.40616343  0.21578339  0.32254331     2.38400
Eu363      Eu  0.30450617  0.08939174  0.38701327     2.39900
Eu364      Eu  0.36672428  0.10222929  0.32194506     2.39800
O365        O  0.36712366  0.10400498  0.37094041    -0.94100
O366        O  0.35472442  0.15327481  0.30684470    -0.93000
C367        C  0.29700940  0.07217329  0.27184806     1.01000
C368        C  0.42453909  0.08196834  0.37098988     0.99700
C369        C  0.33177788  0.21061076  0.27205709     0.99100
C370        C  0.21269632  0.08089893  0.36899084     1.01100
C371        C  0.37952680  0.09420784  0.43665926     1.00100
C372        C  0.49951170  0.22951474  0.34335580     0.98900
C373        C  0.43544017  0.17689301  0.27120118     0.99000
C374        C  0.28663828  0.00933574  0.34192283     1.01600
H375        H  0.44063514  0.16437283  0.33102468     0.29000
O376        O  0.41707482  0.16362348  0.33833472    -1.06300
H377        H  0.28058621  0.06802616  0.33034221     0.31000
O378        O  0.30357220  0.09151737  0.33773906    -1.08900
O379        O  0.23556410  0.43825765  0.72208187    -0.81400
O380        O  0.25029202  0.30587106  0.61682574    -0.83000
O381        O  0.31533292  0.40292114  0.66048384    -0.80000
O382        O  0.20250759  0.39027600  0.61695117    -0.78400
O383        O  0.13484051  0.34641570  0.61676245    -0.80200
O384        O  0.32217449  0.37620639  0.70159867    -0.81100
O385        O  0.27249746  0.37303601  0.61535237    -0.82400
O386        O  0.26912062  0.44680715  0.68084249    -0.82700
Eu387      Eu  0.24280770  0.38198097  0.65666722     2.39200
O388        O  0.19141106  0.31971596  0.64147617    -0.90200
O389        O  0.24007316  0.37933527  0.70570855    -0.93800
C390        C  0.26468030  0.45900215  0.70515203     1.00800
C391        C  0.27044936  0.34128919  0.60556322     1.00700
C392        C  0.33599569  0.39497037  0.67809338     1.00600
C393        C  0.16640505  0.37542391  0.60633188     0.98500
H394        H  0.27720666  0.33050167  0.66546633     0.28200
O395        O  0.25395704  0.33018749  0.67295919    -1.02600
H396        H  0.18129621  0.39480226  0.66637096     0.28300
O397        O  0.18181250  0.37185581  0.67360675    -1.05200
O398        O  0.15106038  0.19837406  0.65875357    -0.82400
O399        O  0.12902207  0.32948188  0.76157656    -0.81900
O400        O  0.27540499  0.28044078  0.71974405    -0.80400
O401        O  0.11974976  0.26081447  0.61807366    -0.83700
O402        O  0.10811172  0.36058984  0.66137884    -0.81600
O403        O  0.26605105  0.38198180  0.76056871    -0.80200
O404        O  0.18109094  0.24532610  0.75997399    -0.81700
O405        O  0.07038545  0.23697221  0.72064094    -0.83700
O406        O  0.24784722  0.29163350  0.76281751    -0.80400
O407        O  0.06429031  0.26786112  0.68152889    -0.83100
O408        O  0.24547801  0.24457459  0.68003918    -0.78800
O409        O  0.21958238  0.40232093  0.76350619    -0.78800
O410        O  0.13616876  0.39492958  0.70196791    -0.78500
O411        O  0.16412824  0.23769085  0.61639243    -0.82000
O412        O  0.11887195  0.19025277  0.70051498    -0.81400
O413        O  0.10885775  0.26278561  0.76336215    -0.79700
Eu414      Eu  0.20359911  0.26904421  0.65704800     2.39800
Eu415      Eu  0.17851322  0.36936508  0.72314994     2.39600
Eu416      Eu  0.25532374  0.33218349  0.72247004     2.38400
Eu417      Eu  0.12923988  0.30914496  0.65769388     2.39900
Eu418      Eu  0.14191163  0.25641567  0.72248245     2.39800
O419        O  0.12973622  0.30741477  0.70674866    -0.94100
O420        O  0.20423285  0.26920592  0.70623955    -0.93000
C421        C  0.12305546  0.17739353  0.67634947     1.01000
C422        C  0.10884029  0.29386086  0.77265288     0.99700
C423        C  0.26598405  0.25077839  0.70298047     0.99100
C424        C  0.13421578  0.23972103  0.60690978     1.01100
C425        C  0.11649637  0.38957653  0.67868034     1.00100
C426        C  0.25109099  0.40230223  0.77202702     0.98900
C427        C  0.21646631  0.26014059  0.77126047     0.99000
C428        C  0.05051904  0.24763877  0.70450131     1.01600
H429        H  0.19219360  0.31914280  0.75943791     0.29000
O430        O  0.19209244  0.31932076  0.73905473    -1.06300
H431        H  0.11769671  0.23632230  0.66605146     0.31000
O432        O  0.14104969  0.25930416  0.67334285    -1.08900
O433        O  0.19981173  0.25722224  0.11809075    -0.81400
O434        O  0.06522496  0.28097155  0.21840517    -0.83000
O435        O  0.10564916  0.19762940  0.15898098    -0.80000
O436        O  0.11740280  0.30976979  0.11836811    -0.78400
O437        O  0.16444234  0.37637365  0.11616434    -0.80200
O438        O  0.13443859  0.19087163  0.19910686    -0.81100
O439        O  0.05860323  0.24739193  0.17741302    -0.82400
O440        O  0.13303663  0.23714919  0.11568397    -0.82700
Eu441      Eu  0.12547259  0.26913316  0.15661622     2.39200
O442        O  0.13957129  0.33148574  0.17284736    -0.90200
O443        O  0.17613684  0.25662673  0.17306282    -0.93800
C444        C  0.16444043  0.23762232  0.10656187     1.00800
C445        C  0.04457650  0.25263598  0.20076573     1.00700
C446        C  0.11504144  0.17740535  0.17576702     1.00600
C447        C  0.13326971  0.34524863  0.10712003     0.98500
H448        H  0.10283739  0.24468388  0.21318313     0.28200
O449        O  0.12668992  0.26735552  0.20594165    -1.02600
H450        H  0.18919887  0.31888166  0.12067464     0.28300
O451        O  0.18908063  0.31883285  0.14082625    -1.05200
O452        O  0.17589101  0.37850602  0.26128418    -0.82400
O453        O  0.30997631  0.35949771  0.15902809    -0.81900
O454        O  0.12922615  0.24693703  0.26222254    -0.80400
O455        O  0.14979495  0.40091811  0.15895377    -0.83700
O456        O  0.25194766  0.38974361  0.11910042    -0.81600
O457        O  0.22791336  0.23431948  0.21807497    -0.80200
O458        O  0.25947924  0.33116114  0.26283065    -0.81700
O459        O  0.27206446  0.44234317  0.21925425    -0.83700
O460        O  0.21527366  0.26362523  0.26322106    -0.80400
O461        O  0.24616330  0.44931490  0.17782010    -0.83100
O462        O  0.10617230  0.29131784  0.26252488    -0.78800
O463        O  0.26164845  0.26109302  0.17713508    -0.78800
O464        O  0.27176907  0.34294603  0.11653898    -0.78500
O465        O  0.11376213  0.37146520  0.19858864    -0.82000
O466        O  0.24337598  0.40144293  0.26278078    -0.81400
O467        O  0.31709648  0.39481828  0.19922285    -0.79700
Eu468      Eu  0.13773647  0.33024160  0.22188192     2.39800
Eu469      Eu  0.23879973  0.30516786  0.15722516     2.39600
Eu470      Eu  0.17689182  0.25594635  0.22219360     2.38400
Eu471      Eu  0.20282722  0.38225504  0.15700555     2.39900
Eu472      Eu  0.25155735  0.36987211  0.22252409     2.39800
O473        O  0.25107215  0.36817266  0.17347545    -0.94100
O474        O  0.18868733  0.31862483  0.23770098    -0.93000
C475        C  0.21156442  0.39954081  0.27226255     1.01000
C476        C  0.33017082  0.38960155  0.17549179     0.99700
C477        C  0.10839258  0.26204393  0.27288291     0.99100
C478        C  0.11992355  0.39141586  0.17555313     1.01100
C479        C  0.27171255  0.37408621  0.10770359     1.00100
C480        C  0.25676769  0.24259632  0.20068364     0.98900
C481        C  0.24427554  0.29537358  0.27364384     0.99000
C482        C  0.26414481  0.46298894  0.20163516     1.01600
H483        H  0.26292303  0.30723571  0.21402538     0.29000
O484        O  0.24021241  0.30808566  0.20661159    -1.06300
H485        H  0.19975240  0.40382296  0.21337737     0.31000
O486        O  0.19939000  0.38036704  0.20619431    -1.08900
O487        O  0.51070526  0.04705083  0.59519218    -0.81400
O488        O  0.14449263  0.02538291  0.49256969    -0.83000
O489        O  0.09680264  0.99941794  0.59599608    -0.80000
O490        O  0.10702088  0.10964692  0.55315095    -0.78400
O491        O  0.07846247  0.11604547  0.51280570    -0.80200
O492        O  0.05295307  0.43186430  0.59681443    -0.81100
O493        O  0.15106312  0.06181558  0.53206161    -0.82400
O494        O  0.07823585  0.06981317  0.59615670    -0.82700
Eu495      Eu  0.08593910  0.03717582  0.55616022     2.39200
O496        O  0.08468883  0.03539754  0.50698731    -0.90200
O497        O  0.02326963  0.48580146  0.57177612    -0.93800
C498        C  0.04673474  0.06853028  0.60572979     1.00800
C499        C  0.16480853  0.05549296  0.50901001     1.00700
C500        C  0.08248891  0.46367237  0.60681439     1.00600
C501        C  0.09794553  0.13003992  0.53615745     0.98500
H502        H  0.09757687  0.47465227  0.54740748     0.28200
O503        O  0.07472711  0.47549868  0.54016085    -1.02600
H504        H  0.03346537  0.07063193  0.54757506     0.28300
O505        O  0.03298822  0.04712673  0.54033514    -1.05200
O506        O  0.03284131  0.42384401  0.45192901    -0.82400
O507        O  0.39917142  0.44485374  0.55311846    -0.81900
O508        O  0.06172303  0.40032067  0.55311405    -0.80400
O509        O  0.08416944  0.05831463  0.45238681    -0.83700
O510        O  0.48116291  0.06572819  0.49229762    -0.81600
O511        O  0.46505980  0.41384123  0.59659517    -0.80200
O512        O  0.44030141  0.36384694  0.49330062    -0.81700
O513        O  0.44903444  0.47573563  0.45389546    -0.83700
O514        O  0.47069913  0.35748924  0.53263997    -0.80400
O515        O  0.49540957  0.04235777  0.45058988    -0.83100
O516        O  0.09577457  0.42824911  0.51244227    -0.78800
O517        O  0.44193531  0.45820643  0.59767630    -0.78800
O518        O  0.44431822  0.03499445  0.53140598    -0.78500
O519        O  0.10443434  0.01186343  0.44955034    -0.82000
O520        O  0.46598399  0.40356865  0.45006276    -0.81400
O521        O  0.39274369  0.41163480  0.51197496    -0.79700
Eu522      Eu  0.07296060  0.47239450  0.49072213     2.39800
Eu523      Eu  0.47143816  0.49688613  0.55647323     2.39600
Eu524      Eu  0.01210931  0.42308678  0.55645360     2.38400
Eu525      Eu  0.03562197  0.04905931  0.49104269     2.39900
Eu526      Eu  0.45958841  0.43541213  0.49128704     2.39800
O527        O  0.47313119  0.49761852  0.50748306    -0.94100
O528        O  0.01082358  0.42350470  0.50725963    -0.93000
C529        C  0.99722920  0.40406508  0.44066447     1.01000
C530        C  0.37881351  0.41622102  0.53550003     0.99700
C531        C  0.09038045  0.40856459  0.53568530     0.99100
C532        C  0.10400449  0.04295023  0.44071913     1.01100
C533        C  0.45028861  0.05468871  0.50814702     1.00100
C534        C  0.44443515  0.42885316  0.60763914     0.98900
C535        C  0.45029593  0.34361591  0.50962649     0.99000
C536        C  0.46365781  0.51097151  0.44237698     1.01600
H537        H  0.43810997  0.41114866  0.54805526     0.29000
O538        O  0.46146495  0.43411702  0.54067676    -1.06300
H539        H  0.02222135  0.48563599  0.45484032     0.31000
O540        O  0.02260528  0.48568503  0.47501819    -1.08900
C541        C  0.12889153  0.13127817  0.84149491    -0.03100
C542        C  0.14637888  0.17252643  0.84624747     0.06500
C543        C  0.12498070  0.18894790  0.85867450    -0.03300
C544        C  0.08573178  0.16365454  0.86708948    -0.03300
C545        C  0.06755228  0.12264021  0.86108440     0.06700
C546        C  0.08908814  0.10613045  0.84894936    -0.03500
Br547      Br  0.06441583  0.04908247  0.84375597    -0.02000
Br548      Br  0.15875223  0.10957564  0.82374956    -0.02100
Br549      Br  0.05858244  0.18447983  0.88946598    -0.02000
Br550      Br  0.14950443  0.24597655  0.86398942    -0.02000
C551        C  0.06145363  0.25249665  0.01859649    -0.03100
C552        C  0.04802110  0.27638846  0.03123627     0.06500
C553        C  0.00778278  0.26032467  0.03910989    -0.03300
C554        C  0.48019067  0.22073131  0.03240790    -0.03300
C555        C  0.49369342  0.19643572  0.02039597     0.06700
C556        C  0.03426402  0.21225031  0.01335393    -0.03500
Br557      Br  0.05205219  0.17966152  0.99456317    -0.02000
Br558      Br  0.11710510  0.27499112  0.00881750    -0.02100
Br559      Br  0.42391505  0.20040628  0.03853547    -0.02000
Br560      Br  0.99121269  0.29132443  0.06132942    -0.02000
C561        C  0.45684639  0.36367620  0.19634509    -0.03100
C562        C  0.47966900  0.34930374  0.18314908     0.06500
C563        C  0.46234567  0.30887037  0.17541397    -0.03300
C564        C  0.42261565  0.28221544  0.18243108    -0.03300
C565        C  0.39978693  0.29652590  0.19558943     0.06700
C566        C  0.41673328  0.33711142  0.20273226    -0.03500
Br567      Br  0.38563374  0.35568426  0.22266812    -0.02000
Br568      Br  0.48046520  0.41969049  0.20518744    -0.02100
Br569      Br  0.39960541  0.22593302  0.17478170    -0.02000
Br570      Br  0.49183700  0.29059161  0.15314502    -0.02000
C571        C  0.29363929  0.46516549  0.50780677    -0.03100
C572        C  0.30793927  0.00627500  0.51117160     0.06500
C573        C  0.28254086  0.02025295  0.52035702    -0.03300
C574        C  0.24339255  0.49282362  0.52810210    -0.03300
C575        C  0.22935302  0.45172645  0.52507935     0.06700
C576        C  0.25425865  0.43776193  0.51509398    -0.03500
Br577      Br  0.23442670  0.38114254  0.51192926    -0.02000
Br578      Br  0.32668779  0.44644569  0.49100825    -0.02100
Br579      Br  0.21049136  0.51144573  0.54547245    -0.02000
Br580      Br  0.30110700  0.07680191  0.52207863    -0.02000
C581        C  0.23145858  0.07834510  0.69912477    -0.03100
C582        C  0.22531745  0.11052871  0.69316886     0.06500
C583        C  0.18831776  0.10266827  0.68214572    -0.03300
C584        C  0.15598841  0.06364287  0.68149539    -0.03300
C585        C  0.16197901  0.03131011  0.68716405     0.06700
C586        C  0.19970729  0.03903944  0.69677291    -0.03500
Br587      Br  0.20850518  0.99670521  0.70771835    -0.02000
Br588      Br  0.28457828  0.08821021  0.70795842    -0.02100
Br589      Br  0.10286819  0.05458395  0.67415063    -0.02000
Br590      Br  0.18298969  0.14339625  0.66352996    -0.02000
C591        C  0.30393638  0.38202030  0.36791226    -0.03100
C592        C  0.31922744  0.35939675  0.35574411     0.06500
C593        C  0.36050852  0.37612353  0.35114672    -0.03300
C594        C  0.38664743  0.41510435  0.35994603    -0.03300
C595        C  0.37103718  0.43867906  0.37002015     0.06700
C596        C  0.32972515  0.42232265  0.37401637    -0.03500
Br597      Br  0.30873626  0.45438147  0.38912374    -0.02000
Br598      Br  0.24816435  0.35744338  0.37712118    -0.02100
Br599      Br  0.44372678  0.43577662  0.35881432    -0.02000
Br600      Br  0.38109988  0.34710881  0.33076501    -0.02000
C601        C  0.39940540  0.05340815  0.16721965    -0.03100
C602        C  0.41784317  0.03278719  0.17814557     0.06500
C603        C  0.45235364  0.05235161  0.19478326    -0.03300
C604        C  0.46920410  0.09312312  0.20000926    -0.03300
C605        C  0.44981452  0.11329965  0.19012706     0.06700
C606        C  0.41533415  0.09387529  0.17350016    -0.03500
Br607      Br  0.39086166  0.12317276  0.15912722    -0.02000
Br608      Br  0.35262899  0.52624007  0.14367612    -0.02100
Br609      Br  0.01890130  0.12155721  0.22053047    -0.02000
Br610      Br  0.97580867  0.02295118  0.21077465    -0.02000
C611        C  0.13529726  0.20065175  0.36475029    -0.03100
C612        C  0.09630820  0.18676835  0.35471327     0.06500
C613        C  0.06986897  0.14568532  0.35069121    -0.03300
C614        C  0.08284239  0.11851651  0.35616819    -0.03300
C615        C  0.12160736  0.13238033  0.36656915     0.06700
C616        C  0.14758340  0.17327384  0.37159513    -0.03500
Br617      Br  0.19867109  0.19139181  0.38953083    -0.02000
Br618      Br  0.17177028  0.25701492  0.36866554    -0.02100
Br619      Br  0.04801227  0.06233573  0.34881227    -0.02000
Br620      Br  0.01684478  0.12670550  0.33576280    -0.02000
C621        C  0.29436001  0.02318712  0.02819054    -0.03100
C622        C  0.25586473  0.00740013  0.01669968     0.06500
C623        C  0.23104569  0.46608284  0.01263695    -0.03300
C624        C  0.24495763  0.44031847  0.02022104    -0.03300
C625        C  0.28380118  0.45624217  0.03108639     0.06700
C626        C  0.30802780  0.49738981  0.03608994    -0.03500
Br627      Br  0.35824102  0.01801397  0.05590841    -0.02000
Br628      Br  0.32865643  0.08019388  0.03234303    -0.02100
Br629      Br  0.21080820  0.38328587  0.01629128    -0.02000
Br630      Br  0.17950334  0.44508715  0.99478571    -0.02000
C631        C  0.31343171  0.25933606  0.53459126    -0.03100
C632        C  0.28810081  0.27453319  0.52774465     0.06500
C633        C  0.25086570  0.25026257  0.51498762    -0.03300
C634        C  0.23810520  0.21008895  0.50990509    -0.03300
C635        C  0.26325108  0.19472229  0.51693194     0.06700
C636        C  0.30142187  0.21953355  0.52839894    -0.03500
Br637      Br  0.33728373  0.19920150  0.53509866    -0.02000
Br638      Br  0.36349653  0.29242150  0.55377136    -0.02100
Br639      Br  0.18730924  0.17686147  0.49149916    -0.02000
Br640      Br  0.21796076  0.27247047  0.50392502    -0.02000
C641        C  0.46793619  0.36400885  0.70091528    -0.03100
C642        C  0.43105206  0.34923830  0.68710429     0.06500
C643        C  0.40792009  0.30860490  0.67986083    -0.03300
C644        C  0.42122203  0.28232206  0.68730694    -0.03300
C645        C  0.45831156  0.29720013  0.70074450     0.06700
C646        C  0.48146941  0.33774813  0.70807579    -0.03500
Br647      Br  0.03034066  0.35668112  0.72930834    -0.02000
Br648      Br  0.00014755  0.42019427  0.70925377    -0.02100
Br649      Br  0.38854194  0.22586523  0.67966211    -0.02000
Br650      Br  0.35974414  0.28950565  0.65779784    -0.02000
C651        C  0.07180656  0.37041561  0.86677702    -0.03100
C652        C  0.09926074  0.36262359  0.85293086     0.06500
C653        C  0.13668979  0.39482868  0.84495026    -0.03300
C654        C  0.14428592  0.43406336  0.84714433    -0.03300
C655        C  0.11613819  0.44175084  0.86014106     0.06700
C656        C  0.07867652  0.40943020  0.86802869    -0.03500
Br657      Br  0.03561437  0.41839462  0.87895957    -0.02000
Br658      Br  0.02949765  0.33031589  0.88904698    -0.02100
Br659      Br  0.19167339  0.47575657  0.82995246    -0.02000
Br660      Br  0.17945815  0.38535789  0.83409082    -0.02000
C661        C  0.22773756  0.08634649  0.17366244    -0.03100
C662        C  0.21491658  0.05570303  0.19357692     0.06500
C663        C  0.17803937  0.04123719  0.20748942    -0.03300
C664        C  0.15319239  0.05656888  0.20069919    -0.03300
C665        C  0.16585443  0.08680991  0.18060405     0.06700
C666        C  0.20312418  0.10215950  0.16723412    -0.03500
Br667      Br  0.22024768  0.14501404  0.14034665    -0.02000
Br668      Br  0.27938802  0.10746768  0.15617473    -0.02100
Br669      Br  0.10177888  0.03616567  0.21852239    -0.02000
Br670      Br  0.16243127  0.50174648  0.23680233    -0.02000
C671        C  0.08831863  0.42848665  0.34941131    -0.03100
C672        C  0.06559523  0.39134211  0.36265101     0.06500
C673        C  0.08292400  0.36817202  0.37027507    -0.03300
C674        C  0.12305081  0.38193462  0.36409560    -0.03300
C675        C  0.14508585  0.41797307  0.34956162     0.06700
C676        C  0.12782658  0.44113778  0.34185043    -0.03500
Br677      Br  0.15761866  0.48893241  0.31971649    -0.02000
Br678      Br  0.06575265  0.46234345  0.34245786    -0.02100
Br679      Br  0.14816710  0.35195197  0.37575060    -0.02000
Br680      Br  0.05241595  0.31877689  0.39064504    -0.02000
C681        C  0.28955155  0.21494156  0.02569499    -0.03100
C682        C  0.31296906  0.25370789  0.01506415     0.06500
C683        C  0.29660293  0.27849619  0.01027381    -0.03300
C684        C  0.25651966  0.26458113  0.01690190    -0.03300
C685        C  0.23322208  0.22596153  0.02792758     0.06700
C686        C  0.24972714  0.20125012  0.03264035    -0.03500
Br687      Br  0.21888192  0.14987615  0.05046621    -0.02000
Br688      Br  0.31203400  0.18043455  0.03016265    -0.02100
Br689      Br  0.23331680  0.29803568  0.01085321    -0.02000
Br690      Br  0.32819600  0.33010151  0.99288899    -0.02000
C691        C  0.03567942  0.27409499  0.51230292    -0.03100
C692        C  0.49444426  0.24683065  0.51438138     0.06500
C693        C  0.98043201  0.20704834  0.52251481    -0.03300
C694        C  0.00778836  0.19546520  0.53099868    -0.03300
C695        C  0.04902255  0.22309792  0.52968916     0.06700
C696        C  0.06304776  0.26250076  0.52066939    -0.03500
Br697      Br  0.11967148  0.30059753  0.51988629    -0.02000
Br698      Br  0.55469366  0.32540440  0.49467212    -0.02100
Br699      Br  0.98857120  0.14308255  0.54688106    -0.08000
Br700      Br  0.92401855  0.16809138  0.52107873    -0.02000
C701        C  0.32815249  0.37568018  0.84138893    -0.03100
C702        C  0.33330637  0.41290260  0.84994617     0.06500
C703        C  0.36908419  0.44059996  0.86322131    -0.03300
C704        C  0.40136756  0.43392627  0.86372337    -0.03300
C705        C  0.39584442  0.39646572  0.85585045     0.06700
C706        C  0.36012676  0.36851892  0.84265540    -0.03500
Br707      Br  0.35490839  0.32164161  0.82471672    -0.02000
Br708      Br  0.27564665  0.33225093  0.83180504    -0.02100
Br709      Br  0.45341941  0.47567468  0.87590352    -0.02000
Br710      Br  0.37148237  0.48202887  0.88655866    -0.02000
C711        C  0.46170339  0.04664775  0.69709417    -0.03100
C712        C  0.48358087  0.08490824  0.68553885     0.06500
C713        C  0.46610276  0.10851910  0.68007180    -0.03300
C714        C  0.42570028  0.09309980  0.68577665    -0.03300
C715        C  0.40411558  0.05536486  0.69821051     0.06700
C716        C  0.42178188  0.03196058  0.70395036    -0.03500
Br717      Br  0.39177733  0.48035164  0.72155826    -0.02000
Br718      Br  0.48642531  0.01433649  0.70261218    -0.02100
Br719      Br  0.39908229  0.12208675  0.67507201    -0.02000
Br720      Br  0.99675700  0.16065190  0.66318175    -0.02000
C721        C  0.29790199  0.99767733  0.71492076     0.78900
N722        N  0.29729358  0.51537185  0.73976878    -0.79400
C723        C  0.33177068  0.54796520  0.74928992     0.81400
N724        N  0.36567917  0.56146013  0.73455019    -0.79300
C725        C  0.36604232  0.54396155  0.71039136     0.81500
N726        N  0.33257541  0.51219847  0.70062376    -0.81000
C727        C  0.08907923  0.63897541  0.66684691     0.78900
N728        N  0.08742540  0.62206900  0.64112121    -0.79400
C729        C  0.05155384  0.59106052  0.63164788     0.81400
N730        N  0.01862725  0.57869673  0.64718367    -0.79300
C731        C  0.02049612  0.59544012  0.67212075     0.81500
N732        N  0.05522326  0.62532329  0.68197340    -0.81000
C733        C  0.28451676  0.97255508  0.83334221     0.78900
N734        N  0.26730661  0.95597871  0.80797248    -0.79400
C735        C  0.27019083  0.92430658  0.79788201     0.81400
N736        N  0.29057558  0.91079482  0.81254914    -0.79300
C737        C  0.30681344  0.92603407  0.83764319     0.81500
N738        N  0.30400047  0.95715267  0.84784774    -0.81000
C739        C  0.43908119  0.83492052  0.87933472     0.78900
N740        N  0.45002363  0.84906752  0.90625855    -0.79400
C741        C  0.44490261  0.87992950  0.91540389     0.81400
N742        N  0.42829811  0.89483524  0.89820504    -0.79300
C743        C  0.41881309  0.88222988  0.87155512     0.81500
N744        N  0.42419259  0.85232644  0.86223786    -0.81000
C745        C  0.44351085  0.80396871  0.50003818     0.78900
N746        N  0.46426423  0.78929500  0.51375279    -0.79400
C747        C  0.46655920  0.75803987  0.50321872     0.81400
N748        N  0.44881310  0.74152752  0.47884970    -0.79300
C749        C  0.42780814  0.75487598  0.46471546     0.81500
N750        N  0.42515996  0.78672429  0.47501323    -0.81000
C751        C  0.10291295  0.66914123  0.54561483     0.78900
N752        N  0.12044068  0.68697978  0.57068331    -0.79400
C753        C  0.11617036  0.71807117  0.58070268     0.81400
N754        N  0.09416527  0.73000880  0.56628303    -0.79300
C755        C  0.07694739  0.71267249  0.54190932     0.81500
N756        N  0.08106601  0.68233619  0.53163130    -0.81000
C757        C  0.42123539  0.80464510  0.00138275     0.78900
N758        N  0.38586911  0.79327010  0.01433431    -0.79400
C759        C  0.35128066  0.76437895  0.00316212     0.81400
N760        N  0.35126532  0.74648011  0.97916310    -0.79300
C761        C  0.38548880  0.75650148  0.96584064     0.81500
N762        N  0.42113365  0.78635769  0.97659195    -0.81000
C763        C  0.12619623  0.66798434  0.04492678     0.78900
N764        N  0.12625596  0.68496617  0.07023692    -0.79400
C765        C  0.16105510  0.71699392  0.07997434     0.81400
N766        N  0.19472841  0.73097029  0.06486550    -0.79300
C767        C  0.19473735  0.71457381  0.04011382     0.81500
N768        N  0.16084774  0.68299180  0.03026112    -0.81000
C769        C  0.45839867  0.83396537  0.37911212     0.78900
N770        N  0.49312789  0.84888318  0.36451744    -0.79400
C771        C  0.02698919  0.88064988  0.37426277     0.81400
N772        N  0.02694563  0.89722987  0.39888555    -0.79300
C773        C  0.49337359  0.88329198  0.41404656     0.81500
N774        N  0.45849536  0.85111229  0.40440762    -0.81000
C775        C  0.25231477  0.97041089  0.33288078     0.78900
N776        N  0.21769075  0.95766073  0.34722671    -0.79400
C777        C  0.18295024  0.92729332  0.33739152     0.81400
N778        N  0.18201600  0.90957688  0.31305169    -0.79300
C779        C  0.21560756  0.92131173  0.29828542     0.81500
N780        N  0.25128506  0.95236240  0.30787243    -0.81000
C781        C  0.11010483  0.63878013  0.16624072     0.78900
N782        N  0.13258076  0.62608452  0.17988089    -0.79400
C783        C  0.13728737  0.59649883  0.16912274     0.81400
N784        N  0.12007618  0.57939334  0.14476255    -0.79300
C785        C  0.09748219  0.59095767  0.13076444     0.81500
N786        N  0.09253262  0.62132153  0.14116439    -0.81000
C787        C  0.26844356  0.50193908  0.21066894     0.78900
N788        N  0.24734473  0.51530743  0.19581014    -0.79400
C789        C  0.24343301  0.54606567  0.20546660     0.81400
N790        N  0.25957700  0.56324872  0.23007547    -0.79300
C791        C  0.28011999  0.55067803  0.24549173     0.81500
N792        N  0.28458634  0.51948029  0.23606840    -0.81000
C793        C  0.04013955  0.75450112  0.83503773     0.78900
N794        N  0.05557731  0.78904293  0.84992377    -0.79400
C795        C  0.08588776  0.82349762  0.83967475     0.81400
N796        N  0.10036965  0.82344275  0.81409030    -0.79300
C797        C  0.08721621  0.78988987  0.79906283     0.81500
N798        N  0.05630519  0.75472738  0.80928424    -0.81000
C799        C  0.17414633  0.54984457  0.87847898     0.78900
N800        N  0.15814844  0.54883119  0.90443093    -0.79400
C801        C  0.12753139  0.51330034  0.91447874     0.81400
N802        N  0.11466085  0.98006166  0.89923891    -0.79300
C803        C  0.12897930  0.98066958  0.87350506     0.81500
N804        N  0.15873617  0.51556916  0.86325462    -0.81000
C805        C  0.37545850  0.90049006  0.66931122     0.78900
N806        N  0.39254774  0.91642273  0.64385905    -0.79400
C807        C  0.42403214  0.91251090  0.63437641     0.81400
N808        N  0.43738380  0.89260304  0.64984497    -0.79300
C809        C  0.42076656  0.87694779  0.67467777     0.81500
N810        N  0.38969348  0.88034951  0.68429549    -0.81000
C811        C  0.01188290  0.74269539  0.71433376     0.78900
N812        N  0.49926994  0.76563277  0.70130548    -0.79400
C813        C  0.46899208  0.76928039  0.71202844     0.81400
N814        N  0.45121759  0.75067846  0.73581295    -0.79300
C815        C  0.46274355  0.72771017  0.74931051     0.81500
N816        N  0.49374022  0.72370279  0.73889207    -0.81000
C817        C  0.20479017  0.58816957  0.49993500     0.78900
N818        N  0.22107376  0.58846609  0.47427092    -0.79400
C819        C  0.25366154  0.62302905  0.46487279     0.81400
N820        N  0.26889470  0.65617038  0.48065019    -0.79300
C821        C  0.25318255  0.65607225  0.50567954     0.81500
N822        N  0.22101069  0.62241884  0.51519224    -0.81000
C823        C  0.33980417  0.88184261  0.54422981     0.78900
N824        N  0.32699331  0.84726827  0.52975758    -0.79400
C825        C  0.29667195  0.81249105  0.53956183     0.81400
N826        N  0.27918431  0.81158873  0.56404885    -0.79300
C827        C  0.29112395  0.84516613  0.57896694     0.81500
N828        N  0.32202529  0.88073479  0.56933293    -0.81000
C829        C  0.20487886  0.56389921  0.00038091     0.78900
N830        N  0.21618351  0.54040023  0.01413950    -0.79400
C831        C  0.24524786  0.53444802  0.00370527     0.81400
N832        N  0.26333555  0.55150093  0.97955326    -0.79300
C833        C  0.25323275  0.57509504  0.96540074     0.81500
N834        N  0.22330728  0.58120631  0.97548281    -0.81000
C835        C  0.34183844  0.90694183  0.04656770     0.78900
N836        N  0.32715639  0.92738052  0.03252923    -0.79400
C837        C  0.29575635  0.92953338  0.04275909     0.81400
N838        N  0.27922112  0.91227300  0.06712614    -0.79300
C839        C  0.29279899  0.89182137  0.08158462     0.81500
N840        N  0.32467403  0.88902376  0.07160243    -0.81000
C841        C  0.17415443  0.57629249  0.37912992     0.78900
N842        N  0.15619862  0.55734464  0.40378151    -0.79400
C843        C  0.12555777  0.56166255  0.41461435     0.81400
N844        N  0.11424559  0.58505620  0.40137482    -0.79300
C845        C  0.13178602  0.60367394  0.37746296     0.81500
N846        N  0.16167289  0.59956680  0.36638506    -0.81000
C847        C  0.03957928  0.73601140  0.33480124     0.78900
N848        N  0.05506967  0.71797263  0.35082606    -0.79400
C849        C  0.08637702  0.71455083  0.34171474     0.81400
N850        N  0.10226017  0.72849876  0.31636898    -0.79300
C851        C  0.08793354  0.74658164  0.29986842     0.81500
N852        N  0.05601081  0.75024661  0.30883676    -0.81000
C853        C  0.00481423  0.71919545  0.20937615     0.78900
N854        N  0.49045683  0.68536528  0.19389567    -0.79400
C855        C  0.45975074  0.65068946  0.20327793     0.81400
N856        N  0.44327754  0.64892237  0.22838718    -0.79300
C857        C  0.45642900  0.68172480  0.24436159     0.81500
N858        N  0.48787266  0.71740810  0.23509645    -0.81000
C859        C  0.36773860  0.92443998  0.16511383     0.78900
N860        N  0.38648298  0.92408392  0.14069152    -0.79400
C861        C  0.41631505  0.95951372  0.12984475     0.81400
N862        N  0.42591754  0.99400507  0.14279102    -0.79300
C863        C  0.40748026  0.99437924  0.16645173     0.81500
N864        N  0.37863904  0.95996780  0.17767598    -0.81000
C865        C  0.27092774  0.75368425  0.33556545     0.78900
N866        N  0.28928169  0.78730294  0.35146167    -0.79400
C867        C  0.29219149  0.82176951  0.34238532     0.81400
N868        N  0.27778830  0.82345695  0.31710560    -0.79300
C869        C  0.25958723  0.79087134  0.30074908     0.81500
N870        N  0.25614545  0.75552647  0.30977012    -0.81000
C871        C  0.42771501  0.54752292  0.38184731     0.78900
N872        N  0.40301551  0.51152787  0.36984333    -0.79400
C873        C  0.39833710  0.97761142  0.38143679     0.81400
N874        N  0.41789369  0.97900180  0.40494804    -0.79300
C875        C  0.44299160  0.51387312  0.41728587     0.81500
N876        N  0.44791962  0.54887688  0.40605201    -0.81000
C877        C  0.27367407  0.71814711  0.71189727     0.78900
N878        N  0.25590200  0.68410094  0.69640088    -0.79400
C879        C  0.25223773  0.64957519  0.70619598     0.81400
N880        N  0.26658244  0.64916313  0.73179685    -0.79300
C881        C  0.28562656  0.68230537  0.74746485     0.81500
N882        N  0.28898714  0.71737559  0.73781293    -0.81000
C883        C  0.10986562  0.92301560  0.66961046     0.78900
N884        N  0.09500306  0.92415620  0.64357572    -0.79400
C885        C  0.09942530  0.95956588  0.63359600     0.81400
N886        N  0.11950854  0.99285128  0.64898407    -0.79300
C887        C  0.13376977  0.99226388  0.67461196     0.81500
N888        N  0.12852805  0.95727507  0.68490114    -0.81000
C889        C  0.41635756  0.55950760  0.49781239     0.78900
N890        N  0.38072714  0.53745244  0.51097343    -0.79400
C891        C  0.34691336  0.53442416  0.50020138     0.81400
N892        N  0.34802216  0.55274363  0.47615373    -0.79300
C893        C  0.38254488  0.57502141  0.46251597     0.81500
N894        N  0.41737081  0.57841277  0.47306622    -0.81000
C895        C  0.12359376  0.90166730  0.54431117     0.78900
N896        N  0.15722762  0.92019967  0.52861024    -0.79400
C897        C  0.19194508  0.92398109  0.53800916     0.81400
N898        N  0.19387424  0.90979677  0.56324984    -0.79300
C899        C  0.16128551  0.89098245  0.57940142     0.81500
N900        N  0.12558060  0.88700339  0.57020519    -0.81000
C901        C  0.29155444  0.73900798  0.21012981     0.78900
N902        N  0.32667438  0.76221772  0.19654461    -0.79400
C903        C  0.36154748  0.76807168  0.20743716     0.81400
N904        N  0.36201802  0.75135194  0.23190015    -0.79300
C905        C  0.32800206  0.72818365  0.24584510     0.81500
N906        N  0.29223579  0.72210435  0.23527249    -0.81000
C907        C  0.08691282  0.89831781  0.16666192     0.78900
N908        N  0.08717394  0.91647041  0.14183933    -0.79400
C909        C  0.05262890  0.91486973  0.13265745     0.81400
N910        N  0.01898542  0.89520087  0.14774537    -0.79300
C911        C  0.01853384  0.87732167  0.17186820     0.81500
N912        N  0.05210605  0.87833603  0.18117489    -0.81000
C913        C  0.44118516  0.58917768  0.00338378     0.78900
N914        N  0.42512055  0.59028328  0.97798484    -0.79400
C915        C  0.42901731  0.62559093  0.96853284     0.81400
N916        N  0.44898326  0.65887087  0.98392878    -0.79300
C917        C  0.46489666  0.65811253  0.00872009     0.81500
N918        N  0.46154839  0.62363464  0.01834926    -0.81000
C919        C  0.10012049  0.88371358  0.04681174     0.78900
N920        N  0.07906486  0.84882521  0.03255764    -0.79400
C921        C  0.07695155  0.81499844  0.04215643     0.81400
N922        N  0.09483285  0.81527364  0.06623378    -0.79300
C923        C  0.11559513  0.84901679  0.08101942     0.81500
N924        N  0.11830957  0.88387617  0.07161777    -0.81000
C925        C  0.25384058  0.72581426  0.83179101     0.78900
N926        N  0.25455887  0.74438583  0.80703942    -0.79400
C927        C  0.21952285  0.74034718  0.79658564     0.81400
N928        N  0.18506962  0.71736678  0.81012086    -0.79300
C929        C  0.18451300  0.69905919  0.83403376     0.81500
N930        N  0.21849737  0.70313578  0.84493440    -0.81000
C931        C  0.46112866  0.57350363  0.87844727     0.78900
N932        N  0.49548660  0.59312363  0.86355038    -0.79400
C933        C  0.02965782  0.59641304  0.87365473     0.81400
N934        N  0.03035272  0.58114512  0.89864372    -0.79300
C935        C  0.49702362  0.56178593  0.91393383     0.81500
N936        N  0.46191061  0.55808354  0.90416877    -0.81000
O937        O  0.36987526  0.59035250  0.78659609    -0.81400
O938        O  0.23433055  0.61247649  0.88644921    -0.83000
O939        O  0.28162172  0.53229696  0.82620642    -0.80000
O940        O  0.28649692  0.64242135  0.78528895    -0.78400
O941        O  0.33314282  0.70924066  0.78376343    -0.80200
O942        O  0.30779485  0.52422529  0.86708233    -0.81100
O943        O  0.22770874  0.57796914  0.84584907    -0.82400
O944        O  0.30291934  0.56944650  0.78368837    -0.82700
Eu945      Eu  0.29497613  0.60214020  0.82413122     2.39200
O946        O  0.30933226  0.66426311  0.84089443    -0.90200
O947        O  0.34630651  0.59118881  0.84099652    -0.93800
C948        C  0.33459548  0.56992891  0.77508823     1.00800
C949        C  0.21372742  0.58341702  0.86921442     1.00700
C950        C  0.29014877  0.51149687  0.84311005     1.00600
C951        C  0.30230752  0.67809929  0.77420778     0.98500
H952        H  0.27290426  0.57766639  0.88073328     0.28200
O953        O  0.29629290  0.60069595  0.87353502    -1.02600
H954        H  0.35875614  0.65244879  0.78823833     0.28300
O955        O  0.35855734  0.65238910  0.80841860    -1.05200
O956        O  0.34602453  0.71251409  0.92906769    -0.82400
O957        O  0.48026046  0.69179143  0.82765587    -0.81900
O958        O  0.29718449  0.57891294  0.92889727    -0.80400
O959        O  0.31742669  0.73094408  0.82566045    -0.83700
O960        O  0.42100255  0.72449350  0.78659298    -0.81600
O961        O  0.39921474  0.57122495  0.88679553    -0.80200
O962        O  0.42859928  0.66526605  0.93065238    -0.81700
O963        O  0.44005471  0.77461593  0.88782283    -0.83700
O964        O  0.38414041  0.59787053  0.93146476    -0.80400
O965        O  0.41521444  0.78236408  0.84621127    -0.83100
O966        O  0.27490750  0.62386512  0.93038415    -0.78800
O967        O  0.43183625  0.59602233  0.84525077    -0.78800
O968        O  0.44111009  0.67799718  0.78400457    -0.78500
O969        O  0.28217162  0.70349274  0.86591849    -0.82000
O970        O  0.41354239  0.73565647  0.93080241    -0.81400
O971        O  0.48669201  0.72744693  0.86755048    -0.79700
Eu972      Eu  0.30680981  0.66328344  0.88994103     2.39800
Eu973      Eu  0.40874669  0.63961706  0.82493815     2.39600
Eu974      Eu  0.34670540  0.59001537  0.89002464     2.38400
Eu975      Eu  0.37204784  0.71547781  0.82475354     2.39900
Eu976      Eu  0.42058720  0.70337655  0.89037970     2.39800
O977        O  0.42120058  0.70266418  0.84120315    -0.94100
O978        O  0.35798280  0.65221592  0.90605378    -0.93000
C979        C  0.38171579  0.73393195  0.94011240     1.01000
C980        C  0.50056868  0.72143911  0.84440551     0.99700
C981        C  0.27608162  0.59352963  0.93975278     0.99100
C982        C  0.28767122  0.72169551  0.84213513     1.01100
C983        C  0.44093401  0.70910703  0.77516266     1.00100
C984        C  0.42737086  0.57846631  0.86914335     0.98900
C985        C  0.41327114  0.62965900  0.94165526     0.99000
C986        C  0.43307437  0.79563799  0.87014879     1.01600
H987        H  0.43291016  0.64240889  0.88181768     0.29000
O988        O  0.40969619  0.64231695  0.87430750    -1.06300
H989        H  0.36817472  0.73680614  0.88101505     0.31000
O990        O  0.36819628  0.71356676  0.87396282    -1.08900
O991        O  0.44734733  0.92400363  0.95171200    -0.81400
O992        O  0.10471611  0.94738447  0.05402341    -0.83000
O993        O  0.08375743  0.97328247  0.95126327    -0.80000
O994        O  0.48475168  0.86326108  0.99389840    -0.78400
O995        O  0.45070799  0.85690386  0.03463184    -0.80200
O996        O  0.10703278  0.54071605  0.95010658    -0.81100
O997        O  0.07424236  0.91098238  0.01462183    -0.82400
O998        O  0.49188769  0.90103930  0.95149336    -0.82700
Eu999      Eu  0.03415371  0.93554263  0.99040936     2.39200
O1000       O  0.03539786  0.93749070  0.03952753    -0.90200
O1001       O  0.02241699  0.98627990  0.97408652    -0.93800
C1002       C  0.46161567  0.90206965  0.94168518     1.00800
C1003       C  0.09431752  0.91713568  0.03764855     1.00700
C1004       C  0.10545994  0.00907001  0.94059507     1.00600
C1005       C  0.45578842  0.84299878  0.01113734     0.98500
H1006       H  0.10779306  0.99676107  0.99920190     0.28200
O1007       O  0.08450335  0.99669871  0.00635064    -1.02600
H1008       H  0.44880844  0.90160833  0.99977009     0.28300
O1009       O  0.47177022  0.92550143  0.00673078    -1.05200
O1010       O  0.09541867  0.54991824  0.09335442    -0.82400
O1011       O  0.43854172  0.52649970  0.99436132    -0.81900
O1012       O  0.14655257  0.56974425  0.99262969    -0.80400
O1013       O  0.51340412  0.91619383  0.09490673    -0.83700
O1014       O  0.40146424  0.90347364  0.05347010    -0.81600
O1015       O  0.03626356  0.55887945  0.95089596    -0.80200
O1016       O  0.06303725  0.60842791  0.05232217    -0.81700
O1017       O  0.45981677  0.49807604  0.09300375    -0.83700
O1018       O  0.09912122  0.61445175  0.01279823    -0.80400
O1019       O  0.43990567  0.93154489  0.09613756    -0.83100
O1020       O  0.15338681  0.54339099  0.03386123    -0.78800
O1021       O  0.46864933  0.51473307  0.94965583    -0.78800
O1022       O  0.39502886  0.93415520  0.01433861    -0.78500
O1023       O  0.08028776  0.96267999  0.09682828    -0.82000
O1024       O  0.04831511  0.56939215  0.09583624    -0.81400
O1025       O  0.46629317  0.56053449  0.03511551    -0.79700
Eu1026     Eu  0.08658464  0.00055369  0.05550418     2.39800
Eu1027     Eu  0.45973945  0.97498320  0.99016378     2.39600
Eu1028     Eu  0.07425761  0.54876086  0.98998447     2.38400
Eu1029     Eu  0.47320832  0.92380820  0.05596802     2.39900
Eu1030     Eu  0.00987758  0.53705406  0.05503813     2.39800
O1031       O  0.46101099  0.97450076  0.03926242    -0.94100
O1032       O  0.07305823  0.54916406  0.03905348    -0.93000
C1033       C  0.07960457  0.56950499  0.10471455     1.01000
C1034       C  0.44696741  0.55533909  0.01187379     0.99700
C1035       C  0.16694418  0.56122337  0.00999833     0.99100
C1036       C  0.04895830  0.93203237  0.10620424     1.01100
C1037       C  0.38129609  0.91361068  0.03718817     1.00100
C1038       C  0.00058306  0.54442874  0.94010453     0.98900
C1039       C  0.09302790  0.62844164  0.03577963     0.99000
C1040       C  0.43954198  0.96283673  0.10450692     1.01600
H1041       H  0.01164610  0.56068936  0.99853850     0.29000
O1042       O  0.01251872  0.53782544  0.00577983    -1.06300
H1043       H  0.02320037  0.98774585  0.09190901     0.31000
O1044       O  0.02324203  0.98738613  0.07164961    -1.08900
O1045       O  0.42563789  0.71440263  0.42666862    -0.81400
O1046       O  0.26971850  0.69199143  0.32616024    -0.83000
O1047       O  0.39500896  0.77406781  0.38614422    -0.80000
O1048       O  0.29311829  0.66250574  0.42674448    -0.78400
O1049       O  0.27261729  0.59567915  0.42816689    -0.80200
O1050       O  0.43082970  0.78107707  0.34628453    -0.81100
O1051       O  0.29698664  0.72553167  0.36717982    -0.82400
O1052       O  0.37915295  0.73469814  0.42910983    -0.82700
Eu1053     Eu  0.34112340  0.70266830  0.38781711     2.39200
O1054       O  0.29225849  0.64040818  0.37129926    -0.90200
O1055       O  0.40428940  0.71492994  0.37167965    -0.93800
C1056       C  0.41003912  0.73413234  0.43822977     1.00800
C1057       C  0.27767085  0.72040138  0.34385656     1.00700
C1058       C  0.42498115  0.79452435  0.36964770     1.00600
C1059       C  0.27347421  0.62691748  0.43788286     0.98500
H1060       H  0.34323370  0.72715417  0.33128336     0.28200
O1061       O  0.34419061  0.70432853  0.33841944    -1.02600
H1062       H  0.35440767  0.65212585  0.42365702     0.28300
O1063       O  0.35451354  0.65253048  0.40349016    -1.05200
O1064       O  0.28205316  0.59306671  0.28262918    -0.82400
O1065       O  0.43583379  0.61291204  0.38678832    -0.81900
O1066       O  0.36739005  0.72538869  0.28320480    -0.80400
O1067       O  0.23290006  0.57071210  0.38522816    -0.83700
O1068       O  0.34419784  0.57906305  0.42504940    -0.81600
O1069       O  0.47881865  0.73746975  0.32581404    -0.80200
O1070       O  0.41489851  0.64104626  0.28206528    -0.81700
O1071       O  0.31553771  0.52983295  0.32460200    -0.83700
O1072       O  0.43715483  0.70832005  0.28134855    -0.80400
O1073       O  0.28160773  0.52307315  0.36543153    -0.83100
O1074       O  0.29993369  0.68074734  0.28153298    -0.78800
O1075       O  0.48540583  0.71029185  0.36672186    -0.78800
O1076       O  0.41089626  0.62573227  0.42817956    -0.78500
O1077       O  0.22621169  0.60052417  0.34574642    -0.82000
O1078       O  0.32691041  0.57047845  0.28163907    -0.81400
O1079       O  0.40512751  0.57602929  0.34756333    -0.79700
Eu1080     Eu  0.29173478  0.64151726  0.32218144     2.39800
Eu1081     Eu  0.41823219  0.66640554  0.38781652     2.39600
Eu1082     Eu  0.40616323  0.71578407  0.32254327     2.38400
Eu1083     Eu  0.30450593  0.58939217  0.38701319     2.39900
Eu1084     Eu  0.36672402  0.60222993  0.32194500     2.39800
O1085       O  0.36712340  0.60400555  0.37094033    -0.94100
O1086       O  0.35472417  0.65327549  0.30684468    -0.93000
C1087       C  0.29700836  0.57217303  0.27184853     1.01000
C1088       C  0.42453851  0.58196851  0.37098995     0.99700
C1089       C  0.33177748  0.71061073  0.27205680     0.99100
C1090       C  0.21269612  0.58089925  0.36899095     1.01100
C1091       C  0.37952660  0.59420800  0.43665896     1.00100
C1092       C  0.49951135  0.72951462  0.34335537     0.98900
C1093       C  0.43544025  0.67689364  0.27120134     0.99000
C1094       C  0.28663840  0.50933638  0.34192238     1.01600
H1095       H  0.44063459  0.66437315  0.33102469     0.29000
O1096       O  0.41707438  0.66362402  0.33833472    -1.06300
H1097       H  0.28058591  0.56802671  0.33034225     0.31000
O1098       O  0.30357198  0.59151804  0.33773904    -1.08900
O1099       O  0.23556396  0.93825677  0.72208170    -0.81400
O1100       O  0.25029147  0.80587117  0.61682436    -0.83000
O1101       O  0.31533188  0.90292186  0.66048198    -0.80000
O1102       O  0.20250662  0.89027533  0.61694951    -0.78400
O1103       O  0.13483952  0.84641521  0.61676121    -0.80200
O1104       O  0.32217359  0.87620739  0.70159692    -0.81100
O1105       O  0.27249661  0.87303605  0.61535101    -0.82400
O1106       O  0.26912038  0.94680654  0.68084221    -0.82700
Eu1107     Eu  0.24280669  0.88198089  0.65666588     2.39200
O1108       O  0.19141021  0.81971583  0.64147490    -0.90200
O1109       O  0.24007207  0.87933464  0.70570718    -0.93800
C1110       C  0.26468034  0.95900115  0.70515199     1.00800
C1111       C  0.27044875  0.84128934  0.60556187     1.00700
C1112       C  0.33599465  0.89497124  0.67809157     1.00600
C1113       C  0.16640405  0.87542293  0.60633024     0.98500
H1114       H  0.27720636  0.83050198  0.66546480     0.28200
O1115       O  0.25395657  0.83018766  0.67295779    -1.02600
H1116       H  0.18129579  0.89480256  0.66637024     0.28300
O1117       O  0.18181187  0.87185603  0.67360594    -1.05200
O1118       O  0.15106024  0.69837402  0.65875220    -0.82400
O1119       O  0.12902342  0.82948137  0.76157684    -0.81900
O1120       O  0.27540461  0.78044079  0.71974276    -0.80400
O1121       O  0.11974839  0.76081361  0.61807311    -0.83700
O1122       O  0.10811206  0.86059084  0.66137838    -0.81600
O1123       O  0.26605116  0.88198185  0.76056766    -0.80200
O1124       O  0.18109073  0.74532563  0.75997236    -0.81700
O1125       O  0.07038522  0.73697399  0.72064005    -0.83700
O1126       O  0.24784691  0.79163330  0.76281599    -0.80400
O1127       O  0.06428960  0.76786205  0.68152770    -0.83100
O1128       O  0.24547712  0.74457415  0.68003816    -0.78800
O1129       O  0.21958251  0.90232097  0.76350535    -0.78800
O1130       O  0.13616833  0.89492957  0.70196792    -0.78500
O1131       O  0.16412673  0.73768978  0.61639184    -0.82000
O1132       O  0.11887148  0.69025290  0.70051347    -0.81400
O1133       O  0.10885879  0.76278501  0.76336203    -0.79700
Eu1134     Eu  0.20359866  0.76904427  0.65704675     2.39800
Eu1135     Eu  0.17851275  0.86936472  0.72314930     2.39600
Eu1136     Eu  0.25532342  0.83218360  0.72246870     2.38400
Eu1137     Eu  0.12923928  0.80914520  0.65769294     2.39900
Eu1138     Eu  0.14191115  0.75641560  0.72248129     2.39800
O1139       O  0.12973558  0.80741468  0.70674777    -0.94100
O1140       O  0.20423244  0.76920608  0.70623827    -0.93000
C1141       C  0.12305513  0.67739362  0.67634801     1.01000
C1142       C  0.10884209  0.79386041  0.77265330     0.99700
C1143       C  0.26598327  0.75077805  0.70297941     0.99100
C1144       C  0.13421403  0.73971969  0.60690940     1.01100
C1145       C  0.11649647  0.88957716  0.67868019     1.00100
C1146       C  0.25109118  0.90230229  0.77202611     0.98900
C1147       C  0.21646612  0.76014013  0.77125880     0.99000
C1148       C  0.05051860  0.74764024  0.70450032     1.01600
H1149       H  0.19219366  0.81914247  0.75943681     0.29000
O1150       O  0.19209220  0.81932051  0.73905364    -1.06300
H1151       H  0.11769633  0.73632245  0.66605045     0.31000
O1152       O  0.14104936  0.75930445  0.67334177    -1.08900
O1153       O  0.19981047  0.75722236  0.11809092    -0.81400
O1154       O  0.06522496  0.78097175  0.21840554    -0.83000
O1155       O  0.10564885  0.69762973  0.15898089    -0.80000
O1156       O  0.11740220  0.80977063  0.11836885    -0.78400
O1157       O  0.16444190  0.87637438  0.11616475    -0.80200
O1158       O  0.13443902  0.69087206  0.19910640    -0.81100
O1159       O  0.05860311  0.74739235  0.17741328    -0.82400
O1160       O  0.13303547  0.73714962  0.11568393    -0.82700
Eu1161     Eu  0.12547234  0.76913361  0.15661640     2.39200
O1162       O  0.13957096  0.83148614  0.17284761    -0.90200
O1163       O  0.17613662  0.75662706  0.17306276    -0.93800
C1164       C  0.16443918  0.73762245  0.10656200     1.00800
C1165       C  0.04457650  0.75263623  0.20076608     1.00700
C1166       C  0.11504134  0.67740564  0.17576675     1.00600
C1167       C  0.13326897  0.84524941  0.10712074     0.98500
H1168       H  0.10283746  0.74468418  0.21318320     0.28200
O1169       O  0.12669007  0.76735593  0.20594176    -1.02600
H1170       H  0.18919844  0.81888218  0.12067451     0.28300
O1171       O  0.18908030  0.81883330  0.14082625    -1.05200
O1172       O  0.17589084  0.87850578  0.26128462    -0.82400
O1173       O  0.30997591  0.85949829  0.15902802    -0.81900
O1174       O  0.12922578  0.74693640  0.26222233    -0.80400
O1175       O  0.14979485  0.90091887  0.15895418    -0.83700
O1176       O  0.25194746  0.88974417  0.11910083    -0.81600
O1177       O  0.22791350  0.73431968  0.21807448    -0.80200
O1178       O  0.25947946  0.83116196  0.26283088    -0.81700
O1179       O  0.27206485  0.94234363  0.21925395    -0.83700
O1180       O  0.21527400  0.76362602  0.26322106    -0.80400
O1181       O  0.24616348  0.94931527  0.17781988    -0.83100
O1182       O  0.10617194  0.79131725  0.26252475    -0.78800
O1183       O  0.26164868  0.76109361  0.17713469    -0.78800
O1184       O  0.27176884  0.84294659  0.11653904    -0.78500
O1185       O  0.11376177  0.87146541  0.19858884    -0.82000
O1186       O  0.24337582  0.90144272  0.26278110    -0.81400
O1187       O  0.31709649  0.89481879  0.19922290    -0.79700
Eu1188     Eu  0.13773641  0.83024190  0.22188214     2.39800
Eu1189     Eu  0.23879941  0.80516821  0.15722508     2.39600
Eu1190     Eu  0.17689198  0.75594660  0.22219352     2.38400
Eu1191     Eu  0.20282686  0.88225539  0.15700579     2.39900
Eu1192     Eu  0.25155736  0.86987249  0.22252415     2.39800
O1193       O  0.25107172  0.86817285  0.17347554    -0.94100
O1194       O  0.18868736  0.81862505  0.23770091    -0.93000
C1195       C  0.21156425  0.89954041  0.27226302     1.01000
C1196       C  0.33017058  0.88960209  0.17549172     0.99700
C1197       C  0.10839206  0.76204318  0.27288266     0.99100
C1198       C  0.11992338  0.89141652  0.17555350     1.01100
C1199       C  0.27171243  0.87408693  0.10770391     1.00100
C1200       C  0.25676786  0.74259665  0.20068314     0.98900
C1201       C  0.24427565  0.79537439  0.27364403     0.99000
C1202       C  0.26414546  0.96298947  0.20163475     1.01600
H1203       H  0.26292311  0.80723602  0.21402528     0.29000
O1204       O  0.24021249  0.80808603  0.20661153    -1.06300
H1205       H  0.19975266  0.90382373  0.21337775     0.31000
O1206       O  0.19939000  0.88036762  0.20619462    -1.08900
O1207       O  0.51070426  0.54705062  0.59519128    -0.81400
O1208       O  0.14449138  0.52538189  0.49256935    -0.83000
O1209       O  0.09680125  0.49941626  0.59599596    -0.80000
O1210       O  0.10701975  0.60964527  0.55315081    -0.78400
O1211       O  0.07846183  0.61604387  0.51280534    -0.80200
O1212       O  0.05295443  0.93186598  0.59681444    -0.81100
O1213       O  0.15106183  0.56181445  0.53206130    -0.82400
O1214       O  0.07823482  0.56981218  0.59615606    -0.82700
Eu1215     Eu  0.08593786  0.53717422  0.55616004     2.39200
O1216       O  0.08468773  0.53539574  0.50698720    -0.90200
O1217       O  0.02327095  0.98580271  0.57177619    -0.93800
C1218       C  0.04673388  0.56852993  0.60572882     1.00800
C1219       C  0.16480719  0.55549210  0.50900958     1.00700
C1220       C  0.08249024  0.96367403  0.60681446     1.00600
C1221       C  0.09794457  0.63003829  0.53615721     0.98500
H1222       H  0.09757806  0.97465345  0.54740721     0.28200
O1223       O  0.07472842  0.97550025  0.54016074    -1.02600
H1224       H  0.03346432  0.57063056  0.54757451     0.28300
O1225       O  0.03298709  0.54712510  0.54033482    -1.05200
O1226       O  0.03284252  0.92384639  0.45192824    -0.82400
O1227       O  0.39917285  0.94485414  0.55311846    -0.81900
O1228       O  0.06172404  0.90032163  0.55311292    -0.80400
O1229       O  0.08416849  0.55831227  0.45238685    -0.83700
O1230       O  0.48116195  0.56572686  0.49229707    -0.81600
O1231       O  0.46505993  0.91384188  0.59659431    -0.80200
O1232       O  0.44030332  0.86384804  0.49330095    -0.81700
O1233       O  0.44903587  0.97573668  0.45389578    -0.83700
O1234       O  0.47070088  0.85748989  0.53264020    -0.80400
O1235       O  0.49540858  0.54235662  0.45058967    -0.83100
O1236       O  0.09577554  0.92825035  0.51244119    -0.78800
O1237       O  0.44193540  0.95820707  0.59767555    -0.78800
O1238       O  0.44431733  0.53499379  0.53140561    -0.78500
O1239       O  0.10443334  0.51186106  0.44955017    -0.82000
O1240       O  0.46598532  0.90357021  0.45006265    -0.81400
O1241       O  0.39274519  0.91163566  0.51197478    -0.79700
Eu1242     Eu  0.07296172  0.97239632  0.49072197     2.39800
Eu1243     Eu  0.47143963  0.99688728  0.55647333     2.39600
Eu1244     Eu  0.01211075  0.92308808  0.55645345     2.38400
Eu1245     Eu  0.03562109  0.54905760  0.49104247     2.39900
Eu1246     Eu  0.45959004  0.93541332  0.49128715     2.39800
O1247       O  0.47313260  0.99761972  0.50748320    -0.94100
O1248       O  0.01082504  0.92350595  0.50725949    -0.93000
C1249       C  0.99723025  0.90406726  0.44066387     1.01000
C1250       C  0.37881492  0.91622156  0.53549989     0.99700
C1251       C  0.09038105  0.90856510  0.53568390     0.99100
C1252       C  0.10400355  0.54294798  0.44071909     1.01100
C1253       C  0.45028790  0.55468802  0.50814659     1.00100
C1254       C  0.44443478  0.92885345  0.60763805     0.98900
C1255       C  0.45029749  0.84361665  0.50962679     0.99000
C1256       C  0.46365891  0.01097245  0.44237726     1.01600
H1257       H  0.43811173  0.91114986  0.54805500     0.29000
O1258       O  0.46146659  0.93411827  0.54067673    -1.06300
H1259       H  0.02222243  0.98563790  0.45484042     0.31000
O1260       O  0.02260638  0.98568682  0.47501829    -1.08900
C1261       C  0.12889218  0.63127551  0.84149300    -0.03100
C1262       C  0.14637936  0.67252382  0.84624513     0.06500
C1263       C  0.12498161  0.68894535  0.85867268    -0.03300
C1264       C  0.08573293  0.66365206  0.86708807    -0.03300
C1265       C  0.06755331  0.62263766  0.86108316     0.06700
C1266       C  0.08908905  0.60612774  0.84894811    -0.03500
Br1267     Br  0.06441708  0.54907967  0.84375559    -0.02000
Br1268     Br  0.15875285  0.60957302  0.82374756    -0.02100
Br1269     Br  0.05858419  0.68447766  0.88946493    -0.02000
Br1270     Br  0.14950578  0.74597400  0.86398789    -0.02000
C1271       C  0.06145147  0.75249767  0.01859758    -0.03100
C1272       C  0.04801836  0.77638860  0.03123791     0.06500
C1273       C  0.00778005  0.76032401  0.03911174    -0.03300
C1274       C  0.48018930  0.72073202  0.03240801    -0.03300
C1275       C  0.49369230  0.69643636  0.02039647     0.06700
C1276       C  0.03426255  0.71225113  0.01335511    -0.03500
Br1277     Br  0.05205195  0.67966307  0.99456483    -0.02000
Br1278     Br  0.11710283  0.77499377  0.00881760    -0.02100
Br1279     Br  0.42391351  0.70040742  0.03853438    -0.02000
Br1280     Br  0.99120949  0.79132251  0.06133228    -0.02000
C1281       C  0.45684555  0.86367696  0.19634517    -0.03100
C1282       C  0.47966928  0.84930519  0.18314990     0.06500
C1283       C  0.46234699  0.80887176  0.17541514    -0.03300
C1284       C  0.42261690  0.78221623  0.18243171    -0.03300
C1285       C  0.39978714  0.79652597  0.19558943     0.06700
C1286       C  0.41673255  0.83711143  0.20273220    -0.03500
Br1287     Br  0.38563197  0.85568306  0.22266807    -0.02000
Br1288     Br  0.48046253  0.91969134  0.20518658    -0.02100
Br1289     Br  0.39960797  0.72593394  0.17478242    -0.02000
Br1290     Br  0.49183980  0.79059368  0.15314720    -0.02000
C1291       C  0.29363861  0.96515957  0.50780402    -0.03100
C1292       C  0.30794048  0.50628107  0.51117401     0.06500
C1293       C  0.28254255  0.52025974  0.52035920    -0.03300
C1294       C  0.24339037  0.99281634  0.52809856    -0.03300
C1295       C  0.22935129  0.95171923  0.52507559     0.06700
C1296       C  0.25425806  0.93775539  0.51509128    -0.03500
Br1297     Br  0.23442831  0.88113621  0.51192890    -0.02000
Br1298     Br  0.32668787  0.94644094  0.49100522    -0.02100
Br1299     Br  0.21048800  0.01143782  0.54546797    -0.02000
Br1300     Br  0.30110813  0.57680873  0.52207777    -0.02000
C1301       C  0.23145584  0.57834360  0.69912629    -0.03100
C1302       C  0.22531556  0.61052752  0.69316926     0.06500
C1303       C  0.18831646  0.60266731  0.68214505    -0.03300
C1304       C  0.15598691  0.56364199  0.68149445    -0.03300
C1305       C  0.16197674  0.53130898  0.68716426     0.06700
C1306       C  0.19970426  0.53903803  0.69677474    -0.03500
Br1307     Br  0.20850056  0.49670377  0.70772370    -0.02000
Br1308     Br  0.28457497  0.58820796  0.70796084    -0.02100
Br1309     Br  0.10286724  0.55458368  0.67414818    -0.02000
Br1310     Br  0.18298937  0.64339548  0.66352850    -0.02000
C1311       C  0.30393398  0.88201996  0.36791454    -0.03100
C1312       C  0.31922477  0.85939663  0.35574555     0.06500
C1313       C  0.36050576  0.87612363  0.35114753    -0.03300
C1314       C  0.38664488  0.91510417  0.35994725    -0.03300
C1315       C  0.37103488  0.93867859  0.37002230     0.06700
C1316       C  0.32972293  0.92232224  0.37401888    -0.03500
Br1317     Br  0.30873439  0.95438131  0.38912634    -0.02000
Br1318     Br  0.24816218  0.85744306  0.37712409    -0.02100
Br1319     Br  0.44372423  0.93577672  0.35881430    -0.02000
Br1320     Br  0.38109670  0.84710987  0.33076411    -0.02000
C1321       C  0.39940544  0.55340732  0.16722152    -0.03100
C1322       C  0.41784342  0.53278634  0.17814702     0.06500
C1323       C  0.45235391  0.55235059  0.19478469    -0.03300
C1324       C  0.46920480  0.59312222  0.20001048    -0.03300
C1325       C  0.44981546  0.61329899  0.19012828     0.06700
C1326       C  0.41533461  0.59387456  0.17350183    -0.03500
Br1327     Br  0.39086208  0.62317214  0.15912912    -0.02000
Br1328     Br  0.35263007  0.02624118  0.14367319    -0.02100
Br1329     Br  0.01890336  0.62155647  0.22052939    -0.02000
Br1330     Br  0.97580636  0.52294917  0.21077718    -0.02000
C1331       C  0.13529716  0.70065229  0.36475049    -0.03100
C1332       C  0.09630797  0.68676859  0.35471362     0.06500
C1333       C  0.06986864  0.64568545  0.35069227    -0.03300
C1334       C  0.08284204  0.61851679  0.35616993    -0.03300
C1335       C  0.12160709  0.63238088  0.36657090     0.06700
C1336       C  0.14758315  0.67327456  0.37159629    -0.03500
Br1337     Br  0.19867069  0.69139311  0.38953238    -0.02000
Br1338     Br  0.17177086  0.75701563  0.36866358    -0.02100
Br1339     Br  0.04801183  0.56233584  0.34881464    -0.02000
Br1340     Br  0.01684460  0.62670531  0.33576343    -0.02000
C1341       C  0.29435953  0.52318477  0.02818865    -0.03100
C1342       C  0.25586435  0.50739797  0.01669764     0.06500
C1343       C  0.23104648  0.96608506  0.01263850    -0.03300
C1344       C  0.24495885  0.94032090  0.02022213    -0.03300
C1345       C  0.28380231  0.95624475  0.03108769     0.06700
C1346       C  0.30802859  0.99739234  0.03609157    -0.03500
Br1347     Br  0.35824005  0.51801125  0.05590704    -0.02000
Br1348     Br  0.32865588  0.58019144  0.03234168    -0.02100
Br1349     Br  0.21081031  0.88328837  0.01629106    -0.02000
Br1350     Br  0.17950443  0.94508929  0.99478675    -0.02000
C1351       C  0.31343024  0.75933498  0.53459199    -0.03100
C1352       C  0.28810110  0.77453355  0.52774359     0.06500
C1353       C  0.25086678  0.75026390  0.51498519    -0.03300
C1354       C  0.23810540  0.71009001  0.50990289    -0.03300
C1355       C  0.26324945  0.69472194  0.51693162     0.06700
C1356       C  0.30141938  0.71953203  0.52840025    -0.03500
Br1357     Br  0.33727869  0.69919772  0.53510297    -0.02000
Br1358     Br  0.36349412  0.79241922  0.55377352    -0.02100
Br1359     Br  0.18731083  0.67686387  0.49149485    -0.02000
Br1360     Br  0.21796398  0.77247328  0.50392055    -0.02000
C1361       C  0.46793322  0.86400844  0.70091348    -0.03100
C1362       C  0.43104910  0.84923713  0.68710243     0.06500
C1363       C  0.40791823  0.80860388  0.67985839    -0.03300
C1364       C  0.42122124  0.78232180  0.68730418    -0.03300
C1365       C  0.45831047  0.79720050  0.70074232     0.06700
C1366       C  0.48146746  0.83774853  0.70807374    -0.03500
Br1367     Br  0.03033823  0.85668129  0.72930597    -0.02000
Br1368     Br  0.00014341  0.92019323  0.70925218    -0.02100
Br1369     Br  0.38854343  0.72586526  0.67965768    -0.02000
Br1370     Br  0.35974247  0.78950407  0.65779505    -0.02000
C1371       C  0.07180902  0.87041539  0.86677737    -0.03100
C1372       C  0.09926385  0.86262394  0.85293147     0.06500
C1373       C  0.13669237  0.89482962  0.84495048    -0.03300
C1374       C  0.14428743  0.93406401  0.84714419    -0.03300
C1375       C  0.11613930  0.94175075  0.86014106     0.06700
C1376       C  0.07867805  0.90942965  0.86802872    -0.03500
Br1377     Br  0.03561505  0.91839312  0.87895883    -0.02000
Br1378     Br  0.02949981  0.83031538  0.88904703    -0.02100
Br1379     Br  0.19167343  0.97575769  0.82995113    -0.02000
Br1380     Br  0.17946161  0.88536027  0.83409106    -0.02000
C1381       C  0.22773289  0.58634324  0.17366520    -0.03100
C1382       C  0.21491109  0.55569900  0.19357910     0.06500
C1383       C  0.17803307  0.54123215  0.20749061    -0.03300
C1384       C  0.15318598  0.55656351  0.20069978    -0.03300
C1385       C  0.16584926  0.58680601  0.18060564     0.06700
C1386       C  0.20311963  0.60215619  0.16723648    -0.03500
Br1387     Br  0.22024357  0.64501043  0.14034867    -0.02000
Br1388     Br  0.27938448  0.60746569  0.15617893    -0.02100
Br1389     Br  0.10177019  0.53615708  0.21852018    -0.02000
Br1390     Br  0.16243848  0.00175231  0.23680167    -0.02000
C1391       C  0.08831866  0.92848752  0.34940998    -0.03100
C1392       C  0.06559442  0.89134309  0.36264962     0.06500
C1393       C  0.08292214  0.86817202  0.37027362    -0.03300
C1394       C  0.12304907  0.88193409  0.36409494    -0.03300
C1395       C  0.14508534  0.91797294  0.34956160     0.06700
C1396       C  0.12782677  0.94113810  0.34184980    -0.03500
Br1397     Br  0.15761979  0.98893223  0.31971554    -0.02000
Br1398     Br  0.06575325  0.96234447  0.34245511    -0.02100
Br1399     Br  0.14816367  0.85194980  0.37574985    -0.02000
Br1400     Br  0.05241221  0.81877585  0.39064211    -0.02000
C1401       C  0.28954987  0.71493883  0.02569330    -0.03100
C1402       C  0.31296809  0.75370631  0.01506441     0.06500
C1403       C  0.29660271  0.77849576  0.01027641    -0.03300
C1404       C  0.25651973  0.76458091  0.01690517    -0.03300
C1405       C  0.23322143  0.72596012  0.02792871     0.06700
C1406       C  0.24972554  0.70124736  0.03263897    -0.03500
Br1407     Br  0.21887935  0.64987155  0.05046215    -0.02000
Br1408     Br  0.31203123  0.68043042  0.03015798    -0.02100
Br1409     Br  0.23331823  0.79803755  0.01086049    -0.02000
Br1410     Br  0.32819604  0.83010230  0.99289340    -0.02000
C1411       C  0.03567552  0.77409209  0.51230458    -0.03100
C1412       C  0.49444113  0.74682702  0.51438079     0.06500
C1413       C  0.98042914  0.70704260  0.52251047    -0.03300
C1414       C  0.00778591  0.69546022  0.53099487    -0.03300
C1415       C  0.04901982  0.72309493  0.52968890     0.06700
C1416       C  0.06304424  0.76249872  0.52067166    -0.03500
Br1417     Br  0.11966744  0.80059820  0.51989293    -0.02000
Br1418     Br  0.55469057  0.82540212  0.49467378    -0.02100
Br1419     Br  0.98856924  0.64307588  0.54687399    -0.08000
Br1420     Br  0.92401700  0.66808226  0.52106757    -0.02000
C1421       C  0.32815379  0.87568048  0.84138696    -0.03100
C1422       C  0.33330553  0.91290152  0.84994583     0.06500
C1423       C  0.36908162  0.94059821  0.86322322    -0.03300
C1424       C  0.40136584  0.93392590  0.86372556    -0.03300
C1425       C  0.39584482  0.89646666  0.85585107     0.06700
C1426       C  0.36012875  0.86852033  0.84265406    -0.03500
Br1427     Br  0.35491339  0.82164518  0.82471367    -0.02000
Br1428     Br  0.27564961  0.83225100  0.83179996    -0.02100
Br1429     Br  0.45341610  0.97567461  0.87590797    -0.02000
Br1430     Br  0.37147630  0.98202393  0.88656270    -0.02000
C1431       C  0.46170244  0.54665030  0.69709173    -0.03100
C1432       C  0.48357992  0.58491084  0.68553649     0.06500
C1433       C  0.46610213  0.60852210  0.68007006    -0.03300
C1434       C  0.42569987  0.59310324  0.68577557    -0.03300
C1435       C  0.40411494  0.55536789  0.69820891     0.06700
C1436       C  0.42178113  0.53196338  0.70394832    -0.03500
Br1437     Br  0.39177758  0.98034844  0.72155966    -0.02000
Br1438     Br  0.48642417  0.51433870  0.70260923    -0.02100
Br1439     Br  0.39908278  0.62209193  0.67507319    -0.02000
Br1440     Br  0.99675733  0.66065405  0.66318038    -0.02000
C1441       C  0.79790263  0.49767838  0.71492102     0.78900
N1442       N  0.79729399  0.01537037  0.73976940    -0.79400
C1443       C  0.83177095  0.04796368  0.74929068     0.81400
N1444       N  0.86567995  0.06145779  0.73455162    -0.79300
C1445       C  0.86604364  0.04395837  0.71039330     0.81500
N1446       N  0.83257691  0.01219538  0.70062559    -0.81000
C1447       C  0.58907929  0.13897522  0.66684864     0.78900
N1448       N  0.58742550  0.12206906  0.64112283    -0.79400
C1449       C  0.55155420  0.09106004  0.63164962     0.81400
N1450       N  0.51862774  0.07869539  0.64718578    -0.79300
C1451       C  0.52049654  0.09543851  0.67212302     0.81500
N1452       N  0.55522349  0.12532230  0.68197544    -0.81000
C1453       C  0.78451628  0.47255570  0.83334291     0.78900
N1454       N  0.76730581  0.45597886  0.80797337    -0.79400
C1455       C  0.77018966  0.42430637  0.79788324     0.81400
N1456       N  0.79057433  0.41079462  0.81255048    -0.79300
C1457       C  0.80681262  0.42603444  0.83764432     0.81500
N1458       N  0.80399994  0.45715336  0.84784859    -0.81000
C1459       C  0.93907955  0.33491958  0.87933505     0.78900
N1460       N  0.95002254  0.34906722  0.90625872    -0.79400
C1461       C  0.94490175  0.37992948  0.91540384     0.81400
N1462       N  0.92829688  0.39483485  0.89820493    -0.79300
C1463       C  0.91881115  0.38222863  0.87155522     0.81500
N1464       N  0.92419043  0.35232497  0.86223818    -0.81000
C1465       C  0.94350959  0.30396789  0.50003842     0.78900
N1466       N  0.96426396  0.28929554  0.51375318    -0.79400
C1467       C  0.96656056  0.25804136  0.50321931     0.81400
N1468       N  0.94881485  0.24152824  0.47885027    -0.79300
C1469       C  0.92780879  0.25487541  0.46471585     0.81500
N1470       N  0.92515919  0.28672299  0.47501347    -0.81000
C1471       C  0.60291452  0.16914298  0.54561520     0.78900
N1472       N  0.62044224  0.18698135  0.57068370    -0.79400
C1473       C  0.61617229  0.21807294  0.58070304     0.81400
N1474       N  0.59416776  0.23001113  0.56628325    -0.79300
C1475       C  0.57694986  0.21267490  0.54190954     0.81500
N1476       N  0.58106787  0.18233822  0.53163163    -0.81000
C1477       C  0.92123665  0.30464596  0.00138253     0.78900
N1478       N  0.88587037  0.29327131  0.01433394    -0.79400
C1479       C  0.85128193  0.26438025  0.00316174     0.81400
N1480       N  0.85126656  0.24648102  0.97916292    -0.79300
C1481       C  0.88549004  0.25650200  0.96584061     0.81500
N1482       N  0.92113494  0.28635825  0.97659187    -0.81000
C1483       C  0.62619761  0.16798449  0.04492641     0.78900
N1484       N  0.62625752  0.18496623  0.07023663    -0.79400
C1485       C  0.66105643  0.21699463  0.07997371     0.81400
N1486       N  0.69472944  0.23097191  0.06486435    -0.79300
C1487       C  0.69473830  0.21457555  0.04011256     0.81500
N1488       N  0.66084888  0.18299268  0.03026032    -0.81000
C1489       C  0.95839940  0.33396386  0.37911245     0.78900
N1490       N  0.99312911  0.34888153  0.36451834    -0.79400
C1491       C  0.52698882  0.38064833  0.37426367     0.81400
N1492       N  0.52694480  0.39722820  0.39888638    -0.79300
C1493       C  0.99337341  0.38328957  0.41404747     0.81500
N1494       N  0.95849538  0.35111039  0.40440793    -0.81000
C1495       C  0.75231439  0.47041182  0.33288034     0.78900
N1496       N  0.71769032  0.45766189  0.34722612    -0.79400
C1497       C  0.68294979  0.42729477  0.33739078     0.81400
N1498       N  0.68201554  0.40957822  0.31305099    -0.79300
C1499       C  0.71560721  0.42131273  0.29828490     0.81500
N1500       N  0.75128476  0.45236323  0.30787204    -0.81000
C1501       C  0.61010675  0.13878034  0.16624060     0.78900
N1502       N  0.63258444  0.12608624  0.17988006    -0.79400
C1503       C  0.63729204  0.09650134  0.16912160     0.81400
N1504       N  0.62007982  0.07939490  0.14476182    -0.79300
C1505       C  0.59748391  0.09095764  0.13076445     0.81500
N1506       N  0.59253362  0.12132092  0.14116467    -0.81000
C1507       C  0.76844680  0.00194090  0.21066773     0.78900
N1508       N  0.74735065  0.01531134  0.19580785    -0.79400
C1509       C  0.74344084  0.04607108  0.20546350     0.81400
N1510       N  0.75958365  0.06325320  0.23007287    -0.79300
C1511       C  0.78012350  0.05068009  0.24549036     0.81500
N1512       N  0.78458825  0.01948115  0.23606766    -0.81000
C1513       C  0.54013678  0.25450019  0.83503704     0.78900
N1514       N  0.55557357  0.28904212  0.84992286    -0.79400
C1515       C  0.58588271  0.32349720  0.83967331     0.81400
N1516       N  0.60036411  0.32344273  0.81408864    -0.79300
C1517       C  0.58721201  0.28988979  0.79906154     0.81500
N1518       N  0.55630234  0.25472673  0.80928344    -0.81000
C1519       C  0.67414621  0.04984417  0.87847932     0.78900
N1520       N  0.65814800  0.04883050  0.90443118    -0.79400
C1521       C  0.62753090  0.01329951  0.91447876     0.81400
N1522       N  0.61466200  0.48006176  0.89923963    -0.79300
C1523       C  0.62897947  0.48066954  0.87350552     0.81500
N1524       N  0.65873641  0.01556891  0.86325484    -0.81000
C1525       C  0.87545977  0.40048941  0.66931311     0.78900
N1526       N  0.89254852  0.41642184  0.64386077    -0.79400
C1527       C  0.92403347  0.41251098  0.63437809     0.81400
N1528       N  0.93738636  0.39260434  0.64984694    -0.79300
C1529       C  0.92076970  0.37694928  0.67467999     0.81500
N1530       N  0.88969586  0.38034994  0.68429758    -0.81000
C1531       C  0.51188306  0.24269415  0.71433481     0.78900
N1532       N  0.99927077  0.26563144  0.70130661    -0.79400
C1533       C  0.96899337  0.26927958  0.71202987     0.81400
N1534       N  0.95121875  0.25067740  0.73581423    -0.79300
C1535       C  0.96274404  0.22770836  0.74931140     0.81500
N1536       N  0.99374036  0.22370050  0.73889275    -0.81000
C1537       C  0.70479189  0.08817001  0.49993565     0.78900
N1538       N  0.72107544  0.08846626  0.47427163    -0.79400
C1539       C  0.75366332  0.12302905  0.46487344     0.81400
N1540       N  0.76889651  0.15617057  0.48065067    -0.79300
C1541       C  0.75318437  0.15607265  0.50568000     0.81500
N1542       N  0.72101259  0.12241931  0.51519281    -0.81000
C1543       C  0.83980281  0.38184217  0.54423009     0.78900
N1544       N  0.82699168  0.34726776  0.52975798    -0.79400
C1545       C  0.79667093  0.31249055  0.53956268     0.81400
N1546       N  0.77918400  0.31158831  0.56405002    -0.79300
C1547       C  0.79112379  0.34516587  0.57896797     0.81500
N1548       N  0.82202465  0.38073451  0.56933351    -0.81000
C1549       C  0.70488017  0.06390193  0.00038251     0.78900
N1550       N  0.71618633  0.04040490  0.01414212    -0.79400
C1551       C  0.74525194  0.03445402  0.00370869     0.81400
N1552       N  0.76333902  0.05150591  0.97955632    -0.79300
C1553       C  0.75323460  0.07509794  0.96540274     0.81500
N1554       N  0.72330811  0.08120813  0.97548410    -0.81000
C1555       C  0.84183813  0.40694063  0.04656723     0.78900
N1556       N  0.82715536  0.42737834  0.03252836    -0.79400
C1557       C  0.79575525  0.42953112  0.04275815     0.81400
N1558       N  0.77922066  0.41227165  0.06712556    -0.79300
C1559       C  0.79279918  0.39182090  0.08158444     0.81500
N1560       N  0.82467431  0.38902339  0.07160230    -0.81000
C1561       C  0.67415488  0.07629235  0.37912967     0.78900
N1562       N  0.65619976  0.05734617  0.40378186    -0.79400
C1563       C  0.62555901  0.06166456  0.41461435     0.81400
N1564       N  0.61424619  0.08505700  0.40137386    -0.79300
C1565       C  0.63178589  0.10367299  0.37746133     0.81500
N1566       N  0.66167270  0.09956545  0.36638383    -0.81000
C1567       C  0.53957963  0.23601119  0.33480150     0.78900
N1568       N  0.55506978  0.21797196  0.35082608    -0.79400
C1569       C  0.58637721  0.21455039  0.34171469     0.81400
N1570       N  0.60226069  0.22849902  0.31636912    -0.79300
C1571       C  0.58793423  0.24658230  0.29986880     0.81500
N1572       N  0.55601141  0.25024703  0.30883719    -0.81000
C1573       C  0.50481390  0.21919583  0.20937554     0.78900
N1574       N  0.99045576  0.18536530  0.19389511    -0.79400
C1575       C  0.95974937  0.15068952  0.20327715     0.81400
N1576       N  0.94327677  0.14892205  0.22838671    -0.79300
C1577       C  0.95642905  0.18172411  0.24436161     0.81500
N1578       N  0.98787292  0.21740740  0.23509664    -0.81000
C1579       C  0.86773922  0.42443927  0.16511466     0.78900
N1580       N  0.88648352  0.42408374  0.14069214    -0.79400
C1581       C  0.91631560  0.45951377  0.12984559     0.81400
N1582       N  0.92591812  0.49400485  0.14279234    -0.79300
C1583       C  0.90748091  0.49437846  0.16645329     0.81500
N1584       N  0.87863975  0.45996680  0.17767726    -0.81000
C1585       C  0.77092912  0.25368392  0.33556492     0.78900
N1586       N  0.78928483  0.28730320  0.35146043    -0.79400
C1587       C  0.79219530  0.32176984  0.34238366     0.81400
N1588       N  0.77779088  0.32345677  0.31710434    -0.79300
C1589       C  0.75958800  0.29087059  0.30074855     0.81500
N1590       N  0.75614563  0.25552558  0.30976992    -0.81000
C1591       C  0.92771455  0.04752269  0.38184813     0.78900
N1592       N  0.90301321  0.01152734  0.36984525    -0.79400
C1593       C  0.89833823  0.47761187  0.38143577     0.81400
N1594       N  0.91789407  0.47900176  0.40494727    -0.79300
C1595       C  0.94299119  0.01387338  0.41728693     0.81500
N1596       N  0.94792012  0.04887709  0.40605240    -0.81000
C1597       C  0.77367463  0.21814757  0.71189792     0.78900
N1598       N  0.75590276  0.18410178  0.69640119    -0.79400
C1599       C  0.75223847  0.14957590  0.70619592     0.81400
N1600       N  0.76658306  0.14916319  0.73179671    -0.79300
C1601       C  0.78562699  0.18230517  0.74746502     0.81500
N1602       N  0.78898751  0.21737554  0.73781351    -0.81000
C1603       C  0.60986449  0.42301459  0.66961029     0.78900
N1604       N  0.59500245  0.42415502  0.64357530    -0.79400
C1605       C  0.59942450  0.45956456  0.63359543     0.81400
N1606       N  0.61950719  0.49284998  0.64898351    -0.79300
C1607       C  0.63376778  0.49226271  0.67461163     0.81500
N1608       N  0.62852599  0.45727401  0.68490106    -0.81000
C1609       C  0.91635732  0.05950673  0.49781268     0.78900
N1610       N  0.88072615  0.03744871  0.51097230    -0.79400
C1611       C  0.84691223  0.03441935  0.50019955     0.81400
N1612       N  0.84802174  0.05274073  0.47615267    -0.79300
C1613       C  0.88254513  0.07502113  0.46251624     0.81500
N1614       N  0.91737115  0.07841349  0.47306715    -0.81000
C1615       C  0.62359458  0.40166965  0.54431325     0.78900
N1616       N  0.65722917  0.42020488  0.52861332    -0.79400
C1617       C  0.69194701  0.42398800  0.53801281     0.81400
N1618       N  0.69387601  0.40980252  0.56325303    -0.79300
C1619       C  0.66128661  0.39098533  0.57940366     0.81500
N1620       N  0.62558114  0.38700458  0.57020692    -0.81000
C1621       C  0.79155439  0.23900782  0.21013019     0.78900
N1622       N  0.82667415  0.26221726  0.19654473    -0.79400
C1623       C  0.86154730  0.26807106  0.20743703     0.81400
N1624       N  0.86201810  0.25135143  0.23190002    -0.79300
C1625       C  0.82800229  0.22818342  0.24584523     0.81500
N1626       N  0.79223596  0.22210430  0.23527287    -0.81000
C1627       C  0.58691266  0.39831675  0.16666166     0.78900
N1628       N  0.58717394  0.41646975  0.14183924    -0.79400
C1629       C  0.55262880  0.41486866  0.13265717     0.81400
N1630       N  0.51898508  0.39519902  0.14774473    -0.79300
C1631       C  0.51853337  0.37731944  0.17186740     0.81500
N1632       N  0.55210566  0.37833420  0.18117431    -0.81000
C1633       C  0.94118586  0.08917787  0.00338363     0.78900
N1634       N  0.92512104  0.09028310  0.97798472    -0.79400
C1635       C  0.92901867  0.12559084  0.96853220     0.81400
N1636       N  0.94898572  0.15887119  0.98392754    -0.79300
C1637       C  0.96489930  0.15811313  0.00871881     0.81500
N1638       N  0.96155015  0.12363518  0.01834856    -0.81000
C1639       C  0.60012061  0.38371211  0.04681124     0.78900
N1640       N  0.57906610  0.34882398  0.03255664    -0.79400
C1641       C  0.57695373  0.31499738  0.04215500     0.81400
N1642       N  0.59483485  0.31527257  0.06623246    -0.79300
C1643       C  0.61559598  0.34901547  0.08101860     0.81500
N1644       N  0.61830943  0.38387458  0.07161735    -0.81000
C1645       C  0.75383919  0.22581294  0.83179219     0.78900
N1646       N  0.75455763  0.24438478  0.80704071    -0.79400
C1647       C  0.71952197  0.24034755  0.79658745     0.81400
N1648       N  0.68506887  0.21736851  0.81012319    -0.79300
C1649       C  0.68451200  0.19906078  0.83403609     0.81500
N1650       N  0.71849608  0.20313565  0.84493607    -0.81000
C1651       C  0.96112766  0.07350328  0.87844792     0.78900
N1652       N  0.99548587  0.09312483  0.86355146    -0.79400
C1653       C  0.52965635  0.09641459  0.87365635     0.81400
N1654       N  0.53035165  0.08114651  0.89864517    -0.79300
C1655       C  0.99702315  0.06178701  0.91393474     0.81500
N1656       N  0.96190973  0.05808318  0.90416935    -0.81000
O1657       O  0.86987490  0.09035120  0.78659681    -0.81400
O1658       O  0.73433049  0.11247585  0.88644991    -0.83000
O1659       O  0.78162103  0.03229637  0.82620664    -0.80000
O1660       O  0.78649692  0.14242088  0.78528911    -0.78400
O1661       O  0.83314316  0.20924012  0.78376349    -0.80200
O1662       O  0.80779347  0.02422426  0.86708275    -0.81100
O1663       O  0.72770847  0.07796905  0.84584945    -0.82400
O1664       O  0.80291911  0.06944551  0.78368869    -0.82700
Eu1665     Eu  0.79497564  0.10213950  0.82413152     2.39200
O1666       O  0.80933211  0.16426233  0.84089495    -0.90200
O1667       O  0.84630564  0.09118789  0.84099716    -0.93800
C1668       C  0.83459529  0.06992772  0.77508876     1.00800
C1669       C  0.71372726  0.08341670  0.86921492     1.00700
C1670       C  0.79014768  0.01149607  0.84311030     1.00600
C1671       C  0.80230778  0.17809882  0.77420788     0.98500
H1672       H  0.77290368  0.07766567  0.88073391     0.28200
O1673       O  0.79629223  0.10069518  0.87353549    -1.02600
H1674       H  0.85875572  0.15244769  0.78823858     0.28300
O1675       O  0.85855684  0.15238810  0.80841885    -1.05200
O1676       O  0.84602549  0.21251410  0.92906790    -0.82400
O1677       O  0.98025951  0.19179057  0.82765583    -0.81900
O1678       O  0.79718474  0.07891377  0.92889862    -0.80400
O1679       O  0.81742460  0.23094112  0.82566089    -0.83700
O1680       O  0.92100268  0.22449165  0.78659365    -0.81600
O1681       O  0.89921328  0.07122339  0.88679606    -0.80200
O1682       O  0.92859958  0.16526545  0.93065201    -0.81700
O1683       O  0.94005360  0.27461515  0.88782319    -0.83700
O1684       O  0.88414080  0.09786990  0.93146475    -0.80400
O1685       O  0.91521353  0.28236324  0.84621153    -0.83100
O1686       O  0.77490824  0.12386635  0.93038526    -0.78800
O1687       O  0.93183463  0.09602059  0.84525122    -0.78800
O1688       O  0.94110974  0.17799497  0.78400515    -0.78500
O1689       O  0.78217056  0.20349151  0.86591955    -0.82000
O1690       O  0.91354332  0.23565643  0.93080251    -0.81400
O1691       O  0.98669116  0.22744647  0.86755022    -0.79700
Eu1692     Eu  0.80680970  0.16328289  0.88994156     2.39800
Eu1693     Eu  0.90874582  0.13961577  0.82493871     2.39600
Eu1694     Eu  0.84670446  0.09001442  0.89002528     2.38400
Eu1695     Eu  0.87204739  0.21547686  0.82475377     2.39900
Eu1696     Eu  0.92058674  0.20337583  0.89037981     2.39800
O1697       O  0.92119996  0.20266308  0.84120336    -0.94100
O1698       O  0.85798253  0.15221526  0.90605436    -0.93000
C1699       C  0.88171683  0.23393209  0.94011251     1.01000
C1700       C  0.00056765  0.22143863  0.84440520     0.99700
C1701       C  0.77608246  0.09353112  0.93975421     0.99100
C1702       C  0.78766959  0.22169341  0.84213590     1.01100
C1703       C  0.94093409  0.20910505  0.77516337     1.00100
C1704       C  0.92736934  0.07846478  0.86914384     0.98900
C1705       C  0.91327178  0.12965849  0.94165491     0.99000
C1706       C  0.93307319  0.29563717  0.87014915     1.01600
H1707       H  0.93290919  0.14240766  0.88181802     0.29000
O1708       O  0.90969537  0.14231587  0.87430800    -1.06300
H1709       H  0.86817400  0.23680516  0.88101513     0.31000
O1710       O  0.86819584  0.21356603  0.87396301    -1.08900
O1711       O  0.94734695  0.42400421  0.95171172    -0.81400
O1712       O  0.60471507  0.44738257  0.05402342    -0.83000
O1713       O  0.58375855  0.47328242  0.95126371    -0.80000
O1714       O  0.98475267  0.36326198  0.99389803    -0.78400
O1715       O  0.95070901  0.35690485  0.03463148    -0.80200
O1716       O  0.60703206  0.04071506  0.95010648    -0.81100
O1717       O  0.57424208  0.41098097  0.01462152    -0.82400
O1718       O  0.99188733  0.40103992  0.95149320    -0.82700
Eu1719     Eu  0.53415387  0.43554201  0.99040929     2.39200
O1720       O  0.53539794  0.43749012  0.03952749    -0.90200
O1721       O  0.52241715  0.48627932  0.97408639    -0.93800
C1722       C  0.96161522  0.40207013  0.94168499     1.00800
C1723       C  0.59431692  0.41713399  0.03764837     1.00700
C1724       C  0.60546148  0.50907005  0.94059569     1.00600
C1725       C  0.95578954  0.34299972  0.01113703     0.98500
H1726       H  0.60779302  0.49676022  0.99920202     0.28200
O1727       O  0.58450338  0.49669801  0.00635069    -1.02600
H1728       H  0.94880890  0.40160914  0.99976987     0.28300
O1729       O  0.97177061  0.42550245  0.00673055    -1.05200
O1730       O  0.59541932  0.04991748  0.09335457    -0.82400
O1731       O  0.93854142  0.02649958  0.99436166    -0.81900
O1732       O  0.64655256  0.06974428  0.99263007    -0.80400
O1733       O  0.01340443  0.41619436  0.09490633    -0.83700
O1734       O  0.90146430  0.40347325  0.05346972    -0.81600
O1735       O  0.53626283  0.05887863  0.95089642    -0.80200
O1736       O  0.56303874  0.10842769  0.05232218    -0.81700
O1737       O  0.95981653  0.99807593  0.09300367    -0.83700
O1738       O  0.59912218  0.11445150  0.01279798    -0.80400
O1739       O  0.93990624  0.43154561  0.09613778    -0.83100
O1740       O  0.65338672  0.04339149  0.03386185    -0.78800
O1741       O  0.96864908  0.01473356  0.94965629    -0.78800
O1742       O  0.89502902  0.43415537  0.01433849    -0.78500
O1743       O  0.58028799  0.46267931  0.09682828    -0.82000
O1744       O  0.54831589  0.06939150  0.09583667    -0.81400
O1745       O  0.96629304  0.06053461  0.03511579    -0.79700
Eu1746     Eu  0.58658489  0.50055300  0.05550419     2.39800
Eu1747     Eu  0.95973946  0.47498398  0.99016340     2.39600
Eu1748     Eu  0.57425753  0.04876020  0.98998454     2.38400
Eu1749     Eu  0.97320852  0.42380897  0.05596781     2.39900
Eu1750     Eu  0.50987826  0.03705384  0.05503832     2.39800
O1751       O  0.96101041  0.47450109  0.03926213    -0.94100
O1752       O  0.57305855  0.04916359  0.03905349    -0.93000
C1753       C  0.57960544  0.06950433  0.10471484     1.01000
C1754       C  0.94696734  0.05533909  0.01187403     0.99700
C1755       C  0.66694435  0.06122423  0.00999911     0.99100
C1756       C  0.54895841  0.43203173  0.10620414     1.01100
C1757       C  0.88129610  0.41361025  0.03718782     1.00100
C1758       C  0.50058223  0.04442787  0.94010515     0.98900
C1759       C  0.59302926  0.12844146  0.03577949     0.99000
C1760       C  0.93954232  0.46283724  0.10450740     1.01600
H1761       H  0.51164598  0.06068874  0.99853873     0.29000
O1762       O  0.51251875  0.03782487  0.00578002    -1.06300
H1763       H  0.52320046  0.48774549  0.09190883     0.31000
O1764       O  0.52324223  0.48738579  0.07164942    -1.08900
O1765       O  0.92563912  0.21440214  0.42666902    -0.81400
O1766       O  0.76971887  0.19199058  0.32616008    -0.83000
O1767       O  0.89500955  0.27406682  0.38614408    -0.80000
O1768       O  0.79311928  0.16250532  0.42674480    -0.78400
O1769       O  0.77261862  0.09567882  0.42816749    -0.80200
O1770       O  0.93083021  0.28107641  0.34628427    -0.81100
O1771       O  0.79698694  0.22553081  0.36717970    -0.82400
O1772       O  0.87915357  0.23469686  0.42911011    -0.82700
Eu1773     Eu  0.84112377  0.20266762  0.38781716     2.39200
O1774       O  0.79225884  0.14040759  0.37129922    -0.90200
O1775       O  0.90428968  0.21492935  0.37167959    -0.93800
C1776       C  0.91003991  0.23413140  0.43823016     1.00800
C1777       C  0.77767137  0.22040062  0.34385634     1.00700
C1778       C  0.92498177  0.29452338  0.36964759     1.00600
C1779       C  0.77347558  0.12691720  0.43788341     0.98500
H1780       H  0.84323406  0.22715348  0.33128333     0.28200
O1781       O  0.84419091  0.20432772  0.33841947    -1.02600
H1782       H  0.85440831  0.15212556  0.42365691     0.28300
O1783       O  0.85451408  0.15253007  0.40349018    -1.05200
O1784       O  0.78205461  0.09306700  0.28262850    -0.82400
O1785       O  0.93583472  0.11291224  0.38678841    -0.81900
O1786       O  0.86739049  0.22538832  0.28320477    -0.80400
O1787       O  0.73290079  0.07071265  0.38522854    -0.83700
O1788       O  0.84419862  0.07906341  0.42504964    -0.81600
O1789       O  0.97881906  0.23746995  0.32581428    -0.80200
O1790       O  0.91489897  0.14104536  0.28206545    -0.81700
O1791       O  0.81553744  0.02983222  0.32460256    -0.83700
O1792       O  0.93715521  0.20831913  0.28134875    -0.80400
O1793       O  0.78160767  0.02307252  0.36543217    -0.83100
O1794       O  0.79993411  0.18074700  0.28153307    -0.78800
O1795       O  0.98540630  0.21029223  0.36672217    -0.78800
O1796       O  0.91089695  0.12573271  0.42818014    -0.78500
O1797       O  0.72621190  0.10052298  0.34574603    -0.82000
O1798       O  0.82691159  0.07047838  0.28163898    -0.81400
O1799       O  0.90512800  0.07602901  0.34756367    -0.79700
Eu1800     Eu  0.79173517  0.14151649  0.32218135     2.39800
Eu1801     Eu  0.91823276  0.16640532  0.38781666     2.39600
Eu1802     Eu  0.90616351  0.21578339  0.32254324     2.38400
Eu1803     Eu  0.80450641  0.08939181  0.38701336     2.39900
Eu1804     Eu  0.86672443  0.10222927  0.32194525     2.39800
O1805       O  0.86712393  0.10400516  0.37094058    -0.94100
O1806       O  0.85472458  0.15327473  0.30684471    -0.93000
C1807       C  0.79701015  0.07217359  0.27184790     1.01000
C1808       C  0.92453905  0.08196847  0.37099026     0.99700
C1809       C  0.83177787  0.21061043  0.27205686     0.99100
C1810       C  0.71269660  0.08089898  0.36899092     1.01100
C1811       C  0.87952722  0.09420839  0.43665944     1.00100
C1812       C  0.99951185  0.22951514  0.34335576     0.98900
C1813       C  0.93544065  0.17689276  0.27120152     0.99000
C1814       C  0.78663813  0.00933569  0.34192300     1.01600
H1815       H  0.94063513  0.16437298  0.33102489     0.29000
O1816       O  0.91707495  0.16362357  0.33833481    -1.06300
H1817       H  0.78058632  0.06802616  0.33034225     0.31000
O1818       O  0.80357233  0.09151735  0.33773914    -1.08900
O1819       O  0.73556453  0.43825753  0.72208237    -0.81400
O1820       O  0.75029167  0.30587121  0.61682562    -0.83000
O1821       O  0.81533279  0.40292084  0.66048388    -0.80000
O1822       O  0.70250759  0.39027646  0.61695123    -0.78400
O1823       O  0.63484053  0.34641600  0.61676238    -0.80200
O1824       O  0.82217431  0.37620620  0.70159879    -0.81100
O1825       O  0.77249735  0.37303620  0.61535231    -0.82400
O1826       O  0.76912130  0.44680684  0.68084311    -0.82700
Eu1827     Eu  0.74280760  0.38198106  0.65666724     2.39200
O1828       O  0.69141089  0.31971616  0.64147610    -0.90200
O1829       O  0.74007260  0.37933506  0.70570853    -0.93800
C1830       C  0.76468109  0.45900177  0.70515269     1.00800
C1831       C  0.77044910  0.34128934  0.60556309     1.00700
C1832       C  0.83599553  0.39497007  0.67809344     1.00600
C1833       C  0.66640506  0.37542432  0.60633188     0.98500
H1834       H  0.77720645  0.33050159  0.66546640     0.28200
O1835       O  0.75395676  0.33018755  0.67295931    -1.02600
H1836       H  0.68129610  0.39480256  0.66637099     0.28300
O1837       O  0.68181238  0.37185610  0.67360676    -1.05200
O1838       O  0.65105974  0.19837435  0.65875363    -0.82400
O1839       O  0.62902132  0.32948175  0.76157642    -0.81900
O1840       O  0.77540440  0.28044068  0.71974412    -0.80400
O1841       O  0.61974950  0.26081438  0.61807381    -0.83700
O1842       O  0.60811150  0.36059002  0.66137878    -0.81600
O1843       O  0.76605042  0.38198179  0.76056900    -0.80200
O1844       O  0.68109017  0.24532589  0.75997393    -0.81700
O1845       O  0.57038517  0.23697256  0.72064084    -0.83700
O1846       O  0.74784645  0.29163323  0.76281756    -0.80400
O1847       O  0.56429000  0.26786148  0.68152881    -0.83100
O1848       O  0.74547772  0.24457475  0.68003909    -0.78800
O1849       O  0.71958174  0.40232093  0.76350640    -0.78800
O1850       O  0.63616851  0.39492984  0.70196783    -0.78500
O1851       O  0.66412792  0.23769068  0.61639263    -0.82000
O1852       O  0.61887136  0.19025304  0.70051505    -0.81400
O1853       O  0.60885709  0.26278551  0.76336202    -0.79700
Eu1854     Eu  0.70359883  0.26904440  0.65704802     2.39800
Eu1855     Eu  0.67851288  0.36936526  0.72314999     2.39600
Eu1856     Eu  0.75532340  0.33218357  0.72247019     2.38400
Eu1857     Eu  0.62923971  0.30914523  0.65769383     2.39900
Eu1858     Eu  0.64191127  0.25641594  0.72248242     2.39800
O1859       O  0.62973591  0.30741503  0.70674862    -0.94100
O1860       O  0.70423249  0.26920607  0.70623959    -0.93000
C1861       C  0.62305485  0.17739381  0.67634955     1.01000
C1862       C  0.60883946  0.29386069  0.77265270     0.99700
C1863       C  0.76598359  0.25077841  0.70298044     0.99100
C1864       C  0.63421542  0.23972079  0.60691001     1.01100
C1865       C  0.61649608  0.38957670  0.67868026     1.00100
C1866       C  0.75109029  0.40230217  0.77202732     0.98900
C1867       C  0.71646549  0.26014028  0.77126044     0.99000
C1868       C  0.55051873  0.24763910  0.70450123     1.01600
H1869       H  0.69219312  0.31914289  0.75943813     0.29000
O1870       O  0.69209206  0.31932092  0.73905483    -1.06300
H1871       H  0.61769641  0.23632266  0.66605151     0.31000
O1872       O  0.64104946  0.25930447  0.67334286    -1.08900
O1873       O  0.69981180  0.25722276  0.11809054    -0.81400
O1874       O  0.56522492  0.28097184  0.21840517    -0.83000
O1875       O  0.60564977  0.19762934  0.15898080    -0.80000
O1876       O  0.61740247  0.30976932  0.11836829    -0.78400
O1877       O  0.66444189  0.37637321  0.11616447    -0.80200
O1878       O  0.63443925  0.19087169  0.19910667    -0.81100
O1879       O  0.55860341  0.24739210  0.17741311    -0.82400
O1880       O  0.63303662  0.23714933  0.11568385    -0.82700
Eu1881     Eu  0.62547271  0.26913308  0.15661631     2.39200
O1882       O  0.63957131  0.33148569  0.17284746    -0.90200
O1883       O  0.67613701  0.25662678  0.17306287    -0.93800
C1884       C  0.66444050  0.23762270  0.10656165     1.00800
C1885       C  0.54457655  0.25263627  0.20076572     1.00700
C1886       C  0.61504218  0.17740534  0.17576680     1.00600
C1887       C  0.63326929  0.34524811  0.10712020     0.98500
H1888       H  0.60283731  0.24468386  0.21318323     0.28200
O1889       O  0.62668987  0.26735548  0.20594176    -1.02600
H1890       H  0.68919895  0.31888195  0.12067472     0.28300
O1891       O  0.68908066  0.31883306  0.14082633    -1.05200
O1892       O  0.67589067  0.37850615  0.26128428    -0.82400
O1893       O  0.80997643  0.35949767  0.15902850    -0.81900
O1894       O  0.62922609  0.24693691  0.26222255    -0.80400
O1895       O  0.64979488  0.40091832  0.15895401    -0.83700
O1896       O  0.75194793  0.38974430  0.11910074    -0.81600
O1897       O  0.72791358  0.23431976  0.21807499    -0.80200
O1898       O  0.75947900  0.33116100  0.26283072    -0.81700
O1899       O  0.77206465  0.44234350  0.21925425    -0.83700
O1900       O  0.71527363  0.26362505  0.26322111    -0.80400
O1901       O  0.74616326  0.44931510  0.17782017    -0.83100
O1902       O  0.60617241  0.29131786  0.26252504    -0.78800
O1903       O  0.76164856  0.26109327  0.17713506    -0.78800
O1904       O  0.77176952  0.34294685  0.11653933    -0.78500
O1905       O  0.61376201  0.37146524  0.19858883    -0.82000
O1906       O  0.74337561  0.40144295  0.26278106    -0.81400
O1907       O  0.81709655  0.39481811  0.19922334    -0.79700
Eu1908     Eu  0.63773643  0.33024164  0.22188203     2.39800
Eu1909     Eu  0.73879979  0.30516813  0.15722523     2.39600
Eu1910     Eu  0.67689188  0.25594641  0.22219365     2.38400
Eu1911     Eu  0.70282713  0.38225520  0.15700569     2.39900
Eu1912     Eu  0.75155727  0.36987230  0.22252431     2.39800
O1913       O  0.75107208  0.36817285  0.17347564    -0.94100
O1914       O  0.68868728  0.31862486  0.23770112    -0.93000
C1915       C  0.71156402  0.39954092  0.27226272     1.01000
C1916       C  0.83017095  0.38960138  0.17549230     0.99700
C1917       C  0.60839258  0.26204384  0.27288298     0.99100
C1918       C  0.61992347  0.39141603  0.17555337     1.01100
C1919       C  0.77171299  0.37408703  0.10770398     1.00100
C1920       C  0.75676783  0.24259652  0.20068360     0.98900
C1921       C  0.74427547  0.29537343  0.27364387     0.99000
C1922       C  0.76414507  0.46298929  0.20163511     1.01600
H1923       H  0.76292293  0.30723592  0.21402540     0.29000
O1924       O  0.74021236  0.30808589  0.20661165    -1.06300
H1925       H  0.69975246  0.40382331  0.21337755     0.31000
O1926       O  0.69938997  0.38036726  0.20619447    -1.08900
O1927       O  0.01070550  0.04705071  0.59519202    -0.81400
O1928       O  0.64449268  0.02538308  0.49256968    -0.83000
O1929       O  0.59680283  0.99941779  0.59599589    -0.80000
O1930       O  0.60702122  0.10964701  0.55315108    -0.78400
O1931       O  0.57846280  0.11604559  0.51280584    -0.80200
O1932       O  0.55295356  0.43186455  0.59681398    -0.81100
O1933       O  0.65106319  0.06181571  0.53206163    -0.82400
O1934       O  0.57823557  0.06981311  0.59615691    -0.82700
Eu1935     Eu  0.58593922  0.03717596  0.55616030     2.39200
O1936       O  0.58468889  0.03539764  0.50698739    -0.90200
O1937       O  0.52326958  0.48580173  0.57177618    -0.93800
C1938       C  0.54673446  0.06853026  0.60573002     1.00800
C1939       C  0.66480858  0.05549310  0.50901002     1.00700
C1940       C  0.58248941  0.46367260  0.60681393     1.00600
C1941       C  0.59794584  0.13003999  0.53615760     0.98500
H1942       H  0.59757681  0.47465268  0.54740726     0.28200
O1943       O  0.57472700  0.47549905  0.54016070    -1.02600
H1944       H  0.53346559  0.07063204  0.54757513     0.28300
O1945       O  0.53298844  0.04712698  0.54033520    -1.05200
O1946       O  0.53284090  0.42384461  0.45192868    -0.82400
O1947       O  0.89917143  0.44485357  0.55311832    -0.81900
O1948       O  0.56172317  0.40032119  0.55311395    -0.80400
O1949       O  0.58416988  0.05831518  0.45238691    -0.83700
O1950       O  0.98116257  0.06572780  0.49229777    -0.81600
O1951       O  0.96505963  0.41384082  0.59659517    -0.80200
O1952       O  0.94030108  0.36384651  0.49330082    -0.81700
O1953       O  0.94903465  0.47573553  0.45389563    -0.83700
O1954       O  0.97069860  0.35748878  0.53264028    -0.80400
O1955       O  0.99540921  0.04235748  0.45059001    -0.83100
O1956       O  0.59577460  0.42824951  0.51244212    -0.78800
O1957       O  0.94193511  0.45820600  0.59767621    -0.78800
O1958       O  0.94431797  0.03499436  0.53140622    -0.78500
O1959       O  0.60443482  0.01186400  0.44955052    -0.82000
O1960       O  0.96598444  0.40356815  0.45006291    -0.81400
O1961       O  0.89274377  0.41163447  0.51197491    -0.79700
Eu1962     Eu  0.57296041  0.47239481  0.49072202     2.39800
Eu1963     Eu  0.97143820  0.49688583  0.55647318     2.39600
Eu1964     Eu  0.51210933  0.42308714  0.55645349     2.38400
Eu1965     Eu  0.53562221  0.04905960  0.49104271     2.39900
Eu1966     Eu  0.95958855  0.43541176  0.49128705     2.39800
O1967       O  0.97313131  0.49761816  0.50748302    -0.94100
O1968       O  0.51082346  0.42350505  0.50725955    -0.93000
C1969       C  0.49722873  0.40406569  0.44066419     1.01000
C1970       C  0.87881351  0.41622082  0.53549990     0.99700
C1971       C  0.59038056  0.40856505  0.53568519     0.99100
C1972       C  0.60400500  0.04295081  0.44071931     1.01100
C1973       C  0.95028836  0.05468855  0.50814724     1.00100
C1974       C  0.94443492  0.42885273  0.60763909     0.98900
C1975       C  0.95029534  0.34361541  0.50962683     0.99000
C1976       C  0.96365795  0.51097144  0.44237719     1.01600
H1977       H  0.93811004  0.41114846  0.54805522     0.29000
O1978       O  0.96146501  0.43411672  0.54067676    -1.06300
H1979       H  0.52222123  0.48563648  0.45484029     0.31000
O1980       O  0.52260513  0.48568544  0.47501815    -1.08900
C1981       C  0.62889082  0.13127725  0.84149521    -0.03100
C1982       C  0.64637804  0.17252560  0.84624730     0.06500
C1983       C  0.62497979  0.18894720  0.85867407    -0.03300
C1984       C  0.58573081  0.16365393  0.86708900    -0.03300
C1985       C  0.56755155  0.12263945  0.86108452     0.06700
C1986       C  0.58908754  0.10612954  0.84894992    -0.03500
Br1987     Br  0.56441559  0.04908141  0.84375753    -0.02000
Br1988     Br  0.65875149  0.10957449  0.82375015    -0.02100
Br1989     Br  0.55858102  0.18447962  0.88946460    -0.02000
Br1990     Br  0.64950365  0.24597587  0.86398890    -0.02000
C1991       C  0.56145222  0.25249524  0.01859713    -0.03100
C1992       C  0.54802000  0.27638736  0.03123682     0.06500
C1993       C  0.50778174  0.26032386  0.03911052    -0.03300
C1994       C  0.98019194  0.22073217  0.03240703    -0.03300
C1995       C  0.99369501  0.19643690  0.02039501     0.06700
C1996       C  0.53426237  0.21224889  0.01335474    -0.03500
Br1997     Br  0.55205013  0.17965983  0.99456390    -0.02000
Br1998     Br  0.61710359  0.27498933  0.00881796    -0.02100
Br1999     Br  0.92391621  0.20040671  0.03853444    -0.02000
Br2000     Br  0.49121207  0.29132419  0.06132981    -0.02000
C2001       C  0.95684657  0.36367488  0.19634495    -0.03100
C2002       C  0.97966882  0.34930250  0.18314835     0.06500
C2003       C  0.96234520  0.30886928  0.17541276    -0.03300
C2004       C  0.92261519  0.28221438  0.18242995    -0.03300
C2005       C  0.89978678  0.29652480  0.19558881     0.06700
C2006       C  0.91673345  0.33711021  0.20273211    -0.03500
Br2007     Br  0.88563433  0.35568304  0.22266854    -0.02000
Br2008     Br  0.98046597  0.41968898  0.20518820    -0.02100
Br2009     Br  0.89960461  0.22593206  0.17478003    -0.02000
Br2010     Br  0.99183621  0.29059074  0.15314322    -0.02000
C2011       C  0.79363932  0.46516471  0.50780665    -0.03100
C2012       C  0.80793892  0.00627505  0.51117127     0.06500
C2013       C  0.78253995  0.02025271  0.52035597    -0.03300
C2014       C  0.74339219  0.49282298  0.52810091    -0.03300
C2015       C  0.72935293  0.45172576  0.52507893     0.06700
C2016       C  0.75425881  0.43776117  0.51509417    -0.03500
Br2017     Br  0.73442749  0.38114176  0.51193084    -0.02000
Br2018     Br  0.82668780  0.44644477  0.49100828    -0.02100
Br2019     Br  0.71049096  0.51144537  0.54547082    -0.02000
Br2020     Br  0.80110516  0.07680154  0.52207659    -0.02000
C2021       C  0.73145887  0.07834562  0.69912287    -0.03100
C2022       C  0.72531644  0.11052880  0.69316880     0.06500
C2023       C  0.68831621  0.10266803  0.68214657    -0.03300
C2024       C  0.65598720  0.06364244  0.68149612    -0.03300
C2025       C  0.66197885  0.03130999  0.68716329     0.06700
C2026       C  0.69970844  0.03903977  0.69676950    -0.03500
Br2027     Br  0.70851078  0.99670532  0.70770556    -0.02000
Br2028     Br  0.78457937  0.08821188  0.70795535    -0.02100
Br2029     Br  0.60286668  0.05458282  0.67415145    -0.02000
Br2030     Br  0.68298750  0.14339583  0.66353130    -0.02000
C2031       C  0.80393650  0.38202006  0.36791212    -0.03100
C2032       C  0.81922812  0.35939707  0.35574383     0.06500
C2033       C  0.86050930  0.37612435  0.35114669    -0.03300
C2034       C  0.88664776  0.41510495  0.35994663    -0.03300
C2035       C  0.87103694  0.43867923  0.37002065     0.06700
C2036       C  0.82972479  0.42232243  0.37401643    -0.03500
Br2037     Br  0.80873509  0.45438067  0.38912356    -0.02000
Br2038     Br  0.74816442  0.35744230  0.37712108    -0.02100
Br2039     Br  0.94372719  0.43577730  0.35881614    -0.02000
Br2040     Br  0.88110147  0.34711076  0.33076449    -0.02000
C2041       C  0.89940486  0.05340685  0.16722132    -0.03100
C2042       C  0.91784402  0.03278676  0.17814639     0.06500
C2043       C  0.95235550  0.05235201  0.19478304    -0.03300
C2044       C  0.96920493  0.09312330  0.20000948    -0.03300
C2045       C  0.94981454  0.11329919  0.19012756     0.06700
C2046       C  0.91533359  0.09387413  0.17350129    -0.03500
Br2047     Br  0.89086031  0.12317087  0.15912837    -0.02000
Br2048     Br  0.85262662  0.52623818  0.14367895    -0.02100
Br2049     Br  0.51890115  0.12155659  0.22052948    -0.02000
Br2050     Br  0.47580366  0.02294928  0.21077723    -0.02000
C2051       C  0.63529703  0.20065127  0.36475017    -0.03100
C2052       C  0.59630796  0.18676776  0.35471314     0.06500
C2053       C  0.56986888  0.14568472  0.35069098    -0.03300
C2054       C  0.58284254  0.11851605  0.35616772    -0.03300
C2055       C  0.62160747  0.13237997  0.36656877     0.06700
C2056       C  0.64758334  0.17327347  0.37159490    -0.03500
Br2057     Br  0.69867104  0.19139154  0.38953062    -0.02000
Br2058     Br  0.67176976  0.25701444  0.36866573    -0.02100
Br2059     Br  0.54801286  0.06233533  0.34881133    -0.02000
Br2060     Br  0.51684444  0.12670470  0.33576302    -0.02000
C2061       C  0.79436385  0.02318995  0.02819089    -0.03100
C2062       C  0.75586810  0.00740375  0.01670099     0.06500
C2063       C  0.73104623  0.46608435  0.01263822    -0.03300
C2064       C  0.74495761  0.44031949  0.02022221    -0.03300
C2065       C  0.78380157  0.45624274  0.03108670     0.06700
C2066       C  0.80802921  0.49739043  0.03608953    -0.03500
Br2067     Br  0.85824483  0.01801504  0.05590728    -0.02000
Br2068     Br  0.82866196  0.08019659  0.03234254    -0.02100
Br2069     Br  0.71080687  0.38328688  0.01629351    -0.02000
Br2070     Br  0.67950349  0.44508920  0.99478766    -0.02000
C2071       C  0.81343127  0.25933614  0.53459135    -0.03100
C2072       C  0.78810038  0.27453319  0.52774448     0.06500
C2073       C  0.75086538  0.25026246  0.51498733    -0.03300
C2074       C  0.73810501  0.21008884  0.50990491    -0.03300
C2075       C  0.76325095  0.19472231  0.51693195     0.06700
C2076       C  0.80142155  0.21953361  0.52839918    -0.03500
Br2077     Br  0.83728317  0.19920147  0.53509962    -0.02000
Br2078     Br  0.86349592  0.29242171  0.55377161    -0.02100
Br2079     Br  0.68730905  0.17686109  0.49149907    -0.02000
Br2080     Br  0.71796041  0.27247018  0.50392440    -0.02000
C2081       C  0.96793728  0.36400911  0.70091452    -0.03100
C2082       C  0.93105246  0.34923840  0.68710442     0.06500
C2083       C  0.90791989  0.30860478  0.67986168    -0.03300
C2084       C  0.92122195  0.28232197  0.68730757    -0.03300
C2085       C  0.95831216  0.29720020  0.70074417     0.06700
C2086       C  0.98147060  0.33774839  0.70807480    -0.03500
Br2087     Br  0.53033869  0.35668067  0.72931023    -0.02000
Br2088     Br  0.50014577  0.42019386  0.70925525    -0.02100
Br2089     Br  0.88854097  0.22586487  0.67966391    -0.02000
Br2090     Br  0.85974286  0.28950508  0.65779988    -0.02000
C2091       C  0.57180594  0.37041531  0.86677719    -0.03100
C2092       C  0.59925975  0.36262318  0.85293062     0.06500
C2093       C  0.63668878  0.39482814  0.84494989    -0.03300
C2094       C  0.64428519  0.43406287  0.84714409    -0.03300
C2095       C  0.61613797  0.44175056  0.86014136     0.06700
C2096       C  0.57867634  0.40943004  0.86802934    -0.03500
Br2097     Br  0.53561484  0.41839480  0.87896150    -0.02000
Br2098     Br  0.52949698  0.33031537  0.88904699    -0.02100
Br2099     Br  0.69167240  0.47575587  0.82995178    -0.02000
Br2100     Br  0.67945685  0.38535708  0.83409016    -0.02000
C2101       C  0.72773934  0.08634843  0.17366258    -0.03100
C2102       C  0.71491846  0.05570405  0.19357630     0.06500
C2103       C  0.67804074  0.04123665  0.20748837    -0.03300
C2104       C  0.65319329  0.05656795  0.20069856    -0.03300
C2105       C  0.66585515  0.08680980  0.18060406     0.06700
C2106       C  0.70312524  0.10216065  0.16723441    -0.03500
Br2107     Br  0.72024806  0.14501556  0.14034731    -0.02000
Br2108     Br  0.77939059  0.10747185  0.15617568    -0.02100
Br2109     Br  0.60177951  0.03616327  0.21852161    -0.02000
Br2110     Br  0.66243342  0.50174518  0.23680042    -0.02000
C2111       C  0.58831765  0.42848714  0.34941098    -0.03100
C2112       C  0.56559420  0.39134244  0.36265045     0.06500
C2113       C  0.58292288  0.36817216  0.37027423    -0.03300
C2114       C  0.62304977  0.38193495  0.36409495    -0.03300
C2115       C  0.64508501  0.41797375  0.34956137     0.06700
C2116       C  0.62782575  0.44113853  0.34185034    -0.03500
Br2117     Br  0.65761803  0.48893364  0.31971692    -0.02000
Br2118     Br  0.56575135  0.46234362  0.34245734    -0.02100
Br2119     Br  0.64816597  0.35195208  0.37574971    -0.02000
Br2120     Br  0.55241450  0.31877643  0.39064348    -0.02000
C2121       C  0.78955180  0.21494145  0.02569412    -0.03100
C2122       C  0.81296943  0.25370810  0.01506381     0.06500
C2123       C  0.79660345  0.27849666  0.01027411    -0.03300
C2124       C  0.75652022  0.26458157  0.01690234    -0.03300
C2125       C  0.73322254  0.22596171  0.02792762     0.06700
C2126       C  0.74972753  0.20125011  0.03263987    -0.03500
Br2127     Br  0.71888265  0.14987619  0.05046584    -0.02000
Br2128     Br  0.81203381  0.18043383  0.03016038    -0.02100
Br2129     Br  0.73331764  0.29803655  0.01085445    -0.02000
Br2130     Br  0.82819663  0.33010233  0.99288979    -0.02000
C2131       C  0.53568074  0.27409542  0.51230254    -0.03100
C2132       C  0.99444306  0.24682994  0.51438216     0.06500
C2133       C  0.48043267  0.20704885  0.52251380    -0.03300
C2134       C  0.50778854  0.19546531  0.53099808    -0.03300
C2135       C  0.54902280  0.22309780  0.52968905     0.06700
C2136       C  0.56304860  0.26250072  0.52066926    -0.03500
Br2137     Br  0.61967250  0.30059683  0.51988636    -0.02000
Br2138     Br  0.05469152  0.32540377  0.49467235    -0.02100
Br2139     Br  0.48857059  0.14308244  0.54688027    -0.08000
Br2140     Br  0.42401918  0.16809209  0.52107678    -0.02000
C2141       C  0.82815090  0.37567958  0.84138971    -0.03100
C2142       C  0.83330493  0.41290212  0.84994682     0.06500
C2143       C  0.86908300  0.44059970  0.86322163    -0.03300
C2144       C  0.90136625  0.43392584  0.86372378    -0.03300
C2145       C  0.89584291  0.39646519  0.85585101     0.06700
C2146       C  0.86012518  0.36851835  0.84265607    -0.03500
Br2147     Br  0.85490696  0.32164128  0.82471713    -0.02000
Br2148     Br  0.77564502  0.33225032  0.83180587    -0.02100
Br2149     Br  0.95341830  0.47567422  0.87590373    -0.02000
Br2150     Br  0.87148216  0.48202986  0.88655802    -0.02000
C2151       C  0.96170412  0.04664775  0.69709381    -0.03100
C2152       C  0.98358130  0.08490830  0.68553851     0.06500
C2153       C  0.96610289  0.10851890  0.68007156    -0.03300
C2154       C  0.92570049  0.09309942  0.68577674    -0.03300
C2155       C  0.90411626  0.05536467  0.69821093     0.06700
C2156       C  0.92178278  0.03196053  0.70395049    -0.03500
Br2157     Br  0.89177834  0.48035101  0.72155903    -0.02000
Br2158     Br  0.98642612  0.01433637  0.70261091    -0.02100
Br2159     Br  0.89908187  0.12208569  0.67507187    -0.02000
Br2160     Br  0.49675744  0.16065230  0.66318240    -0.02000
C2161       C  0.79790292  0.99767657  0.71492156     0.78900
N2162       N  0.79729429  0.51537188  0.73976914    -0.79400
C2163       C  0.83177137  0.54796536  0.74929015     0.81400
N2164       N  0.86567996  0.56145997  0.73455057    -0.79300
C2165       C  0.86604321  0.54396088  0.71039201     0.81500
N2166       N  0.83257634  0.51219765  0.70062455    -0.81000
C2167       C  0.58907879  0.63897560  0.66684714     0.78900
N2168       N  0.58742504  0.62206902  0.64112151    -0.79400
C2169       C  0.55155343  0.59106075  0.63164805     0.81400
N2170       N  0.51862671  0.57869738  0.64718365    -0.79300
C2171       C  0.52049549  0.59544099  0.67212064     0.81500
N2172       N  0.55522269  0.62532388  0.68197343    -0.81000
C2173       C  0.78451615  0.97255523  0.83334245     0.78900
N2174       N  0.76730614  0.95597880  0.80797269    -0.79400
C2175       C  0.77019034  0.92430658  0.79788234     0.81400
N2176       N  0.79057492  0.91079477  0.81254962    -0.79300
C2177       C  0.80681264  0.92603411  0.83764369     0.81500
N2178       N  0.80399965  0.95715274  0.84784814    -0.81000
C2179       C  0.93908097  0.83492087  0.87933462     0.78900
N2180       N  0.95002372  0.84906814  0.90625838    -0.79400
C2181       C  0.94490263  0.87993011  0.91540370     0.81400
N2182       N  0.92829771  0.89483552  0.89820493    -0.79300
C2183       C  0.91881230  0.88222982  0.87155513     0.81500
N2184       N  0.92419191  0.85232644  0.86223785    -0.81000
C2185       C  0.94350956  0.80396780  0.50003888     0.78900
N2186       N  0.96426219  0.78929348  0.51375378    -0.79400
C2187       C  0.96655676  0.75803803  0.50321987     0.81400
N2188       N  0.94881098  0.74152598  0.47885070    -0.79300
C2189       C  0.92780680  0.75487509  0.46471615     0.81500
N2190       N  0.92515906  0.78672369  0.47501378    -0.81000
C2191       C  0.60291310  0.66914128  0.54561508     0.78900
N2192       N  0.62044077  0.68697971  0.57068359    -0.79400
C2193       C  0.61617029  0.71807094  0.58070306     0.81400
N2194       N  0.59416512  0.73000853  0.56628348    -0.79300
C2195       C  0.57694734  0.71267231  0.54190974     0.81500
N2196       N  0.58106611  0.68233619  0.53163161    -0.81000
C2197       C  0.92123605  0.80464575  0.00138249     0.78900
N2198       N  0.88586982  0.79327030  0.01433424    -0.79400
C2199       C  0.85128144  0.76437879  0.00316222     0.81400
N2200       N  0.85126612  0.74648009  0.97916314    -0.79300
C2201       C  0.88548956  0.75650195  0.96584047     0.81500
N2202       N  0.92113434  0.78635849  0.97659163    -0.81000
C2203       C  0.62619681  0.66798407  0.04492650     0.78900
N2204       N  0.62625619  0.68496626  0.07023642    -0.79400
C2205       C  0.66105518  0.71699422  0.07997385     0.81400
N2206       N  0.69472867  0.73097045  0.06486523    -0.79300
C2207       C  0.69473799  0.71457357  0.04011381     0.81500
N2208       N  0.66084855  0.68299132  0.03026112    -0.81000
C2209       C  0.95839909  0.83396528  0.37911217     0.78900
N2210       N  0.99312837  0.84888315  0.36451754    -0.79400
C2211       C  0.52698874  0.88064992  0.37426259     0.81400
N2212       N  0.52694527  0.89723004  0.39888535    -0.79300
C2213       C  0.99337390  0.88329171  0.41404672     0.81500
N2214       N  0.95849572  0.85111209  0.40440769    -0.81000
C2215       C  0.75231453  0.97041085  0.33288091     0.78900
N2216       N  0.71769043  0.95766074  0.34722674    -0.79400
C2217       C  0.68294996  0.92729323  0.33739155     0.81400
N2218       N  0.68201585  0.90957667  0.31305179    -0.79300
C2219       C  0.71560749  0.92131150  0.29828559     0.81500
N2220       N  0.75128493  0.95236224  0.30787263    -0.81000
C2221       C  0.61010503  0.63877990  0.16624055     0.78900
N2222       N  0.63258079  0.62608414  0.17988082    -0.79400
C2223       C  0.63728692  0.59649800  0.16912293     0.81400
N2224       N  0.62007556  0.57939237  0.14476280    -0.79300
C2225       C  0.59748185  0.59095692  0.13076454     0.81500
N2226       N  0.59253269  0.62132113  0.14116429    -0.81000
C2227       C  0.76844459  0.50193989  0.21066860     0.78900
N2228       N  0.74734652  0.51530880  0.19580946    -0.79400
C2229       C  0.74343548  0.54606762  0.20546554     0.81400
N2230       N  0.75957923  0.56325057  0.23007450    -0.79300
C2231       C  0.78012136  0.55067924  0.24549117     0.81500
N2232       N  0.78458712  0.51948102  0.23606813    -0.81000
C2233       C  0.54013886  0.75450076  0.83503769     0.78900
N2234       N  0.55557623  0.78904268  0.84992357    -0.79400
C2235       C  0.58588644  0.82349741  0.83967443     0.81400
N2236       N  0.60036843  0.82344252  0.81409003    -0.79300
C2237       C  0.58721542  0.78988956  0.79906275     0.81500
N2238       N  0.55630466  0.75472697  0.80928427    -0.81000
C2239       C  0.67414689  0.54984430  0.87847931     0.78900
N2240       N  0.65814920  0.54883096  0.90443133    -0.79400
C2241       C  0.62753231  0.51330009  0.91447924     0.81400
N2242       N  0.61466098  0.98006128  0.89923900    -0.79300
C2243       C  0.62897928  0.98066941  0.87350507     0.81500
N2244       N  0.65873653  0.51556888  0.86325493    -0.81000
C2245       C  0.87545849  0.90048981  0.66931133     0.78900
N2246       N  0.89254763  0.91642245  0.64385914    -0.79400
C2247       C  0.92403209  0.91251075  0.63437647     0.81400
N2248       N  0.93738394  0.89260305  0.64984504    -0.79300
C2249       C  0.92076682  0.87694781  0.67467787     0.81500
N2250       N  0.88969363  0.88034937  0.68429560    -0.81000
C2251       C  0.51188309  0.74269601  0.71433406     0.78900
N2252       N  0.99926946  0.76563177  0.70130497    -0.79400
C2253       C  0.96899149  0.76927931  0.71202784     0.81400
N2254       N  0.95121723  0.75067771  0.73581248    -0.79300
C2255       C  0.96274348  0.72770981  0.74931026     0.81500
N2256       N  0.99374023  0.72370249  0.73889190    -0.81000
C2257       C  0.70479021  0.58816937  0.49993521     0.78900
N2258       N  0.72107394  0.58846593  0.47427117    -0.79400
C2259       C  0.75366181  0.62302890  0.46487314     0.81400
N2260       N  0.76889485  0.65617021  0.48065056    -0.79300
C2261       C  0.75318253  0.65607202  0.50567988     0.81500
N2262       N  0.72101067  0.62241857  0.51519249    -0.81000
C2263       C  0.83980365  0.88184232  0.54422952     0.78900
N2264       N  0.82699242  0.84726800  0.52975719    -0.79400
C2265       C  0.79667080  0.81249086  0.53956136     0.81400
N2266       N  0.77918330  0.81158863  0.56404845    -0.79300
C2267       C  0.79112330  0.84516600  0.57896666     0.81500
N2268       N  0.82202487  0.88073456  0.56933269    -0.81000
C2269       C  0.70487955  0.56389991  0.00038131     0.78900
N2270       N  0.71618461  0.54040138  0.01414006    -0.79400
C2271       C  0.74524949  0.53444978  0.00370605     0.81400
N2272       N  0.76333720  0.55150277  0.97955407    -0.79300
C2273       C  0.75323400  0.57509643  0.96540138     0.81500
N2274       N  0.72330805  0.58120713  0.97548325    -0.81000
C2275       C  0.84183846  0.90694190  0.04656729     0.78900
N2276       N  0.82715687  0.92738125  0.03252917    -0.79400
C2277       C  0.79575740  0.92953478  0.04275940     0.81400
N2278       N  0.77922216  0.91227425  0.06712640    -0.79300
C2279       C  0.79279946  0.89182183  0.08158449     0.81500
N2280       N  0.82467405  0.88902368  0.07160199    -0.81000
C2281       C  0.67415443  0.57629228  0.37913000     0.78900
N2282       N  0.65619902  0.55734515  0.40378189    -0.79400
C2283       C  0.62555802  0.56166301  0.41461452     0.81400
N2284       N  0.61424529  0.58505585  0.40137450    -0.79300
C2285       C  0.63178527  0.60367277  0.37746232     0.81500
N2286       N  0.66167231  0.59956576  0.36638465    -0.81000
C2287       C  0.53957906  0.73601059  0.33480086     0.78900
N2288       N  0.55506921  0.71797140  0.35082545    -0.79400
C2289       C  0.58637648  0.71454958  0.34171400     0.81400
N2290       N  0.60225980  0.72849790  0.31636835    -0.79300
C2291       C  0.58793337  0.74658119  0.29986801     0.81500
N2292       N  0.55601071  0.75024619  0.30883647    -0.81000
C2293       C  0.50481426  0.71919579  0.20937579     0.78900
N2294       N  0.99045665  0.68536504  0.19389590    -0.79400
C2295       C  0.95975063  0.65068918  0.20327817     0.81400
N2296       N  0.94327770  0.64892194  0.22838756    -0.79300
C2297       C  0.95642933  0.68172428  0.24436207     0.81500
N2298       N  0.98787288  0.71740762  0.23509693    -0.81000
C2299       C  0.86773900  0.92443975  0.16511403     0.78900
N2300       N  0.88648301  0.92408393  0.14069146    -0.79400
C2301       C  0.91631509  0.95951381  0.12984479     0.81400
N2302       N  0.92591799  0.99400500  0.14279144    -0.79300
C2303       C  0.90748115  0.99437893  0.16645244     0.81500
N2304       N  0.87863985  0.95996742  0.17767655    -0.81000
C2305       C  0.77092780  0.75368418  0.33556528     0.78900
N2306       N  0.78928238  0.78730312  0.35146120    -0.79400
C2307       C  0.79219247  0.82176970  0.34238461     0.81400
N2308       N  0.77778896  0.82345692  0.31710498    -0.79300
C2309       C  0.75958724  0.79087106  0.30074876     0.81500
N2310       N  0.75614515  0.75552614  0.30977002    -0.81000
C2311       C  0.92771464  0.54752305  0.38184798     0.78900
N2312       N  0.90301488  0.51152800  0.36984410    -0.79400
C2313       C  0.89833551  0.97761129  0.38143771     0.81400
N2314       N  0.91789223  0.97900159  0.40494886    -0.79300
C2315       C  0.94299140  0.51387317  0.41728636     0.81500
N2316       N  0.94791951  0.54887699  0.40605254    -0.81000
C2317       C  0.77367403  0.71814707  0.71189729     0.78900
N2318       N  0.75590175  0.68410088  0.69640095    -0.79400
C2319       C  0.75223734  0.64957510  0.70619608     0.81400
N2320       N  0.76658216  0.64916296  0.73179690    -0.79300
C2321       C  0.78562650  0.68230526  0.74746484     0.81500
N2322       N  0.78898719  0.71737553  0.73781290    -0.81000
C2323       C  0.60986493  0.92301540  0.66961061     0.78900
N2324       N  0.59500297  0.92415599  0.64357563    -0.79400
C2325       C  0.59942530  0.95956563  0.63359571     0.81400
N2326       N  0.61950828  0.99285106  0.64898372    -0.79300
C2327       C  0.63376892  0.99226371  0.67461178     0.81500
N2328       N  0.62852671  0.95727486  0.68490138    -0.81000
C2329       C  0.91635761  0.55950717  0.49781220     0.78900
N2330       N  0.88072703  0.53745164  0.51097297    -0.79400
C2331       C  0.84691331  0.53442336  0.50020078     0.81400
N2332       N  0.84802237  0.55274321  0.47615327    -0.79300
C2333       C  0.88254523  0.57502138  0.46251579     0.81500
N2334       N  0.91737111  0.57841275  0.47306616    -0.81000
C2335       C  0.62359369  0.90166723  0.54431123     0.78900
N2336       N  0.65722745  0.92019924  0.52861019    -0.79400
C2337       C  0.69194492  0.92398066  0.53800909     0.81400
N2338       N  0.69387416  0.90979658  0.56324985    -0.79300
C2339       C  0.66128550  0.89098252  0.57940154     0.81500
N2340       N  0.62558060  0.88700355  0.57020534    -0.81000
C2341       C  0.79155465  0.73900822  0.21012958     0.78900
N2342       N  0.82667461  0.76221802  0.19654442    -0.79400
C2343       C  0.86154770  0.76807198  0.20743699     0.81400
N2344       N  0.86201821  0.75135216  0.23189996    -0.79300
C2345       C  0.82800222  0.72818381  0.24584489     0.81500
N2346       N  0.79223597  0.72210454  0.23527226    -0.81000
C2347       C  0.58691279  0.89831760  0.16666227     0.78900
N2348       N  0.58717389  0.91646996  0.14183960    -0.79400
C2349       C  0.55262883  0.91486909  0.13265761     0.81400
N2350       N  0.51898532  0.89520028  0.14774550    -0.79300
C2351       C  0.51853374  0.87732130  0.17186844     0.81500
N2352       N  0.55210600  0.87833583  0.18117525    -0.81000
C2353       C  0.94118595  0.58917827  0.00338348     0.78900
N2354       N  0.92512156  0.59028385  0.97798445    -0.79400
C2355       C  0.92901893  0.62559162  0.96853218     0.81400
N2356       N  0.94898521  0.65887166  0.98392794    -0.79300
C2357       C  0.96489829  0.65811328  0.00871936     0.81500
N2358       N  0.96154948  0.62363531  0.01834882    -0.81000
C2359       C  0.60012118  0.88371303  0.04681112     0.78900
N2360       N  0.57906563  0.84882463  0.03255702    -0.79400
C2361       C  0.57695238  0.81499789  0.04215583     0.81400
N2362       N  0.59483377  0.81527321  0.06623318    -0.79300
C2363       C  0.61559601  0.84901644  0.08101879     0.81500
N2364       N  0.61831028  0.88387571  0.07161713    -0.81000
C2365       C  0.75384018  0.72581376  0.83179115     0.78900
N2366       N  0.75455850  0.74438561  0.80703970    -0.79400
C2367       C  0.71952256  0.74034733  0.79658609     0.81400
N2368       N  0.68506934  0.71736705  0.81012139    -0.79300
C2369       C  0.68451268  0.69905919  0.83403417     0.81500
N2370       N  0.71849700  0.70313537  0.84493460    -0.81000
C2371       C  0.96112922  0.57350424  0.87844734     0.78900
N2372       N  0.99548722  0.59312422  0.86355051    -0.79400
C2373       C  0.52965724  0.59641242  0.87365450     0.81400
N2374       N  0.53035223  0.58114443  0.89864344    -0.79300
C2375       C  0.99702402  0.56178662  0.91393404     0.81500
N2376       N  0.96191106  0.55808418  0.90416887    -0.81000
O2377       O  0.86987587  0.59035289  0.78659619    -0.81400
O2378       O  0.73433104  0.61247630  0.88644941    -0.83000
O2379       O  0.78162123  0.53229691  0.82620671    -0.80000
O2380       O  0.78649703  0.64242135  0.78528899    -0.78400
O2381       O  0.83314296  0.70924065  0.78376329    -0.80200
O2382       O  0.80779471  0.52422549  0.86708255    -0.81100
O2383       O  0.72770906  0.57796904  0.84584920    -0.82400
O2384       O  0.80291994  0.56944681  0.78368844    -0.82700
Eu2385     Eu  0.79497645  0.60214033  0.82413129     2.39200
O2386       O  0.80933257  0.66426322  0.84089448    -0.90200
O2387       O  0.84630692  0.59118898  0.84099656    -0.93800
C2388       C  0.83459611  0.56992926  0.77508832     1.00800
C2389       C  0.71372786  0.58341682  0.86921464     1.00700
C2390       C  0.79014824  0.51149687  0.84311039     1.00600
C2391       C  0.80230760  0.67809925  0.77420773     0.98500
H2392       H  0.77290473  0.57766654  0.88073350     0.28200
O2393       O  0.79629332  0.60069620  0.87353512    -1.02600
H2394       H  0.85875638  0.65244886  0.78823835     0.28300
O2395       O  0.85855762  0.65238924  0.80841862    -1.05200
O2396       O  0.84602526  0.71251455  0.92906756    -0.82400
O2397       O  0.98026091  0.69179195  0.82765585    -0.81900
O2398       O  0.79718540  0.57891397  0.92889770    -0.80400
O2399       O  0.81742612  0.73094326  0.82566034    -0.83700
O2400       O  0.92100262  0.72449343  0.78659277    -0.81600
O2401       O  0.89921532  0.57122556  0.88679552    -0.80200
O2402       O  0.92860028  0.66526659  0.93065190    -0.81700
O2403       O  0.94005504  0.77461648  0.88782267    -0.83700
O2404       O  0.88414152  0.59787103  0.93146445    -0.80400
O2405       O  0.91521434  0.78236434  0.84621122    -0.83100
O2406       O  0.77490837  0.62386611  0.93038453    -0.78800
O2407       O  0.93183686  0.59602289  0.84525077    -0.78800
O2408       O  0.94111049  0.67799735  0.78400460    -0.78500
O2409       O  0.78217149  0.70349250  0.86591862    -0.82000
O2410       O  0.91354316  0.73565711  0.93080217    -0.81400
O2411       O  0.98669255  0.72744755  0.86755041    -0.79700
Eu2412     Eu  0.80681023  0.66328368  0.88994108     2.39800
Eu2413     Eu  0.90874712  0.63961744  0.82493818     2.39600
Eu2414     Eu  0.84670583  0.59001575  0.89002471     2.38400
Eu2415     Eu  0.87204799  0.71547797  0.82475341     2.39900
Eu2416     Eu  0.92058768  0.70337709  0.89037948     2.39800
O2417       O  0.92120100  0.70266466  0.84120295    -0.94100
O2418       O  0.85798337  0.65221639  0.90605378    -0.93000
C2419       C  0.88171655  0.73393251  0.94011220     1.01000
C2420       C  0.00056921  0.72143964  0.84440548     0.99700
C2421       C  0.77608263  0.59353076  0.93975327     0.99100
C2422       C  0.78767082  0.72169492  0.84213514     1.01100
C2423       C  0.94093417  0.70910699  0.77516254     1.00100
C2424       C  0.92737146  0.57846691  0.86914337     0.98900
C2425       C  0.91327239  0.62965955  0.94165476     0.99000
C2426       C  0.93307442  0.79563840  0.87014869     1.01600
H2427       H  0.93291053  0.64240940  0.88181756     0.29000
O2428       O  0.90969655  0.64231739  0.87430746    -1.06300
H2429       H  0.86817494  0.73680639  0.88101491     0.31000
O2430       O  0.86819657  0.71356704  0.87396269    -1.08900
O2431       O  0.94734747  0.92400447  0.95171168    -0.81400
O2432       O  0.60471627  0.94738359  0.05402310    -0.83000
O2433       O  0.58375748  0.97328173  0.95126344    -0.80000
O2434       O  0.98475204  0.86326199  0.99389804    -0.78400
O2435       O  0.95070831  0.85690469  0.03463147    -0.80200
O2436       O  0.60703329  0.54071579  0.95010673    -0.81100
O2437       O  0.57424263  0.91098162  0.01462144    -0.82400
O2438       O  0.99188779  0.90104010  0.95149318    -0.82700
Eu2439     Eu  0.53415363  0.93554175  0.99040953     2.39200
O2440       O  0.53539784  0.93748979  0.03952772    -0.90200
O2441       O  0.52241701  0.98627911  0.97408674    -0.93800
C2442       C  0.96161580  0.90207045  0.94168492     1.00800
C2443       C  0.59431785  0.91713494  0.03764812     1.00700
C2444       C  0.60546013  0.00906932  0.94059531     1.00600
C2445       C  0.95578884  0.84299963  0.01113700     0.98500
H2446       H  0.60779325  0.99676043  0.99920202     0.28200
O2447       O  0.58450343  0.99669789  0.00635074    -1.02600
H2448       H  0.94880855  0.90160909  0.99976981     0.28300
O2449       O  0.97177028  0.92550225  0.00673052    -1.05200
O2450       O  0.59541843  0.54991752  0.09335449    -0.82400
O2451       O  0.93854180  0.52650002  0.99436135    -0.81900
O2452       O  0.64655269  0.56974393  0.99262973    -0.80400
O2453       O  0.01340411  0.91619453  0.09490655    -0.83700
O2454       O  0.90146421  0.90347378  0.05346962    -0.81600
O2455       O  0.53626333  0.55887866  0.95089567    -0.80200
O2456       O  0.56303772  0.60842768  0.05232185    -0.81700
O2457       O  0.95981672  0.49807608  0.09300416    -0.83700
O2458       O  0.59912168  0.61445141  0.01279794    -0.80400
O2459       O  0.93990546  0.93154531  0.09613724    -0.83100
O2460       O  0.65338688  0.54339069  0.03386130    -0.78800
O2461       O  0.96864959  0.51473374  0.94965604    -0.78800
O2462       O  0.89502876  0.93415533  0.01433813    -0.78500
O2463       O  0.58028786  0.96267903  0.09682831    -0.82000
O2464       O  0.54831512  0.56939180  0.09583608    -0.81400
O2465       O  0.96629304  0.56053470  0.03511563    -0.79700
Eu2466     Eu  0.58658481  0.00055282  0.05550427     2.39800
Eu2467     Eu  0.95973940  0.97498392  0.99016349     2.39600
Eu2468     Eu  0.57425765  0.54876038  0.98998430     2.38400
Eu2469     Eu  0.97320832  0.92380892  0.05596775     2.39900
Eu2470     Eu  0.50987780  0.53705388  0.05503785     2.39800
O2471       O  0.96101072  0.97450135  0.03926217    -0.94100
O2472       O  0.57305835  0.54916363  0.03905328    -0.93000
C2473       C  0.57960438  0.56950438  0.10471456     1.01000
C2474       C  0.94696757  0.55533944  0.01187378     0.99700
C2475       C  0.66694438  0.56122330  0.00999848     0.99100
C2476       C  0.54895832  0.93203158  0.10620436     1.01100
C2477       C  0.88129602  0.91361070  0.03718766     1.00100
C2478       C  0.50058279  0.54442801  0.94010428     0.98900
C2479       C  0.59302843  0.62844135  0.03577934     0.99000
C2480       C  0.93954175  0.96283706  0.10450677     1.01600
H2481       H  0.51164610  0.56068903  0.99853822     0.29000
O2482       O  0.51251878  0.53782520  0.00577955    -1.06300
H2483       H  0.52320062  0.98774517  0.09190914     0.31000
O2484       O  0.52324225  0.98738541  0.07164974    -1.08900
O2485       O  0.92563737  0.71440253  0.42666903    -0.81400
O2486       O  0.76971830  0.69199125  0.32616025    -0.83000
O2487       O  0.89500935  0.77406776  0.38614422    -0.80000
O2488       O  0.79311839  0.66250562  0.42674472    -0.78400
O2489       O  0.77261761  0.59567909  0.42816720    -0.80200
O2490       O  0.93082988  0.78107724  0.34628437    -0.81100
O2491       O  0.79698631  0.72553149  0.36717986    -0.82400
O2492       O  0.87915238  0.73469800  0.42911006    -0.82700
Eu2493     Eu  0.84112327  0.70266836  0.38781717     2.39200
O2494       O  0.79225852  0.64040823  0.37129926    -0.90200
O2495       O  0.90428926  0.71493009  0.37167967    -0.93800
C2496       C  0.91003838  0.73413203  0.43823018     1.00800
C2497       C  0.77767062  0.72040120  0.34385656     1.00700
C2498       C  0.92498149  0.79452438  0.36964765     1.00600
C2499       C  0.77347447  0.62691738  0.43788317     0.98500
H2500       H  0.84323359  0.72715427  0.33128333     0.28200
O2501       O  0.84419055  0.70432863  0.33841946    -1.02600
H2502       H  0.85440762  0.65212599  0.42365701     0.28300
O2503       O  0.85451351  0.65253066  0.40349027    -1.05200
O2504       O  0.78205373  0.59306728  0.28262888    -0.82400
O2505       O  0.93583388  0.61291242  0.38678875    -0.81900
O2506       O  0.86739017  0.72538878  0.28320466    -0.80400
O2507       O  0.73290025  0.57071234  0.38522843    -0.83700
O2508       O  0.84419830  0.57906335  0.42504932    -0.81600
O2509       O  0.97881869  0.73747016  0.32581417    -0.80200
O2510       O  0.91489886  0.64104578  0.28206573    -0.81700
O2511       O  0.81553741  0.52983297  0.32460225    -0.83700
O2512       O  0.93715499  0.70831953  0.28134887    -0.80400
O2513       O  0.78160751  0.52307320  0.36543180    -0.83100
O2514       O  0.79993378  0.68074756  0.28153292    -0.78800
O2515       O  0.98540590  0.71029253  0.36672212    -0.78800
O2516       O  0.91089664  0.62573274  0.42817970    -0.78500
O2517       O  0.72621178  0.60052410  0.34574655    -0.82000
O2518       O  0.82691095  0.57047896  0.28163902    -0.81400
O2519       O  0.90512727  0.57602936  0.34756395    -0.79700
Eu2520     Eu  0.79173482  0.64151732  0.32218142     2.39800
Eu2521     Eu  0.91823224  0.66640592  0.38781671     2.39600
Eu2522     Eu  0.90616321  0.71578414  0.32254329     2.38400
Eu2523     Eu  0.80450603  0.58939232  0.38701332     2.39900
Eu2524     Eu  0.86672403  0.60222993  0.32194528     2.39800
O2525       O  0.86712354  0.60400581  0.37094057    -0.94100
O2526       O  0.85472422  0.65327548  0.30684480    -0.93000
C2527       C  0.79700913  0.57217377  0.27184824     1.01000
C2528       C  0.92453837  0.58196871  0.37099052     0.99700
C2529       C  0.83177760  0.71061088  0.27205666     0.99100
C2530       C  0.71269625  0.58089929  0.36899113     1.01100
C2531       C  0.87952703  0.59420830  0.43665894     1.00100
C2532       C  0.99951144  0.72951523  0.34335561     0.98900
C2533       C  0.93544058  0.67689313  0.27120178     0.99000
C2534       C  0.78663803  0.50933645  0.34192261     1.01600
H2535       H  0.94063470  0.66437344  0.33102498     0.29000
O2536       O  0.91707440  0.66362419  0.33833492    -1.06300
H2537       H  0.78058593  0.56802687  0.33034229     0.31000
O2538       O  0.80357194  0.59151808  0.33773913    -1.08900
O2539       O  0.73556451  0.93825639  0.72208236    -0.81400
O2540       O  0.75029114  0.80587110  0.61682430    -0.83000
O2541       O  0.81533179  0.90292145  0.66048206    -0.80000
O2542       O  0.70250661  0.89027545  0.61694970    -0.78400
O2543       O  0.63483952  0.84641524  0.61676133    -0.80200
O2544       O  0.82217360  0.87620728  0.70159712    -0.81100
O2545       O  0.77249640  0.87303600  0.61535097    -0.82400
O2546       O  0.76912136  0.94680577  0.68084311    -0.82700
Eu2547     Eu  0.74280664  0.88198068  0.65666600     2.39200
O2548       O  0.69141015  0.81971570  0.64147502    -0.90200
O2549       O  0.74007157  0.87933410  0.70570723    -0.93800
C2550       C  0.76468136  0.95900038  0.70515290     1.00800
C2551       C  0.77044838  0.84128925  0.60556174     1.00700
C2552       C  0.83599461  0.89497097  0.67809170     1.00600
C2553       C  0.66640404  0.87542303  0.60633039     0.98500
H2554       H  0.77720629  0.83050174  0.66546499     0.28200
O2555       O  0.75395655  0.83018751  0.67295800    -1.02600
H2556       H  0.68129578  0.89480272  0.66637040     0.28300
O2557       O  0.68181188  0.87185619  0.67360609    -1.05200
O2558       O  0.65105996  0.69837403  0.65875250    -0.82400
O2559       O  0.62902299  0.82948111  0.76157689    -0.81900
O2560       O  0.77540439  0.78044062  0.71974290    -0.80400
O2561       O  0.61974851  0.76081353  0.61807341    -0.83700
O2562       O  0.60811199  0.86059090  0.66137862    -0.81600
O2563       O  0.76605093  0.88198191  0.76056794    -0.80200
O2564       O  0.68109053  0.74532577  0.75997274    -0.81700
O2565       O  0.57038527  0.73697441  0.72064027    -0.83700
O2566       O  0.74784673  0.79163336  0.76281637    -0.80400
O2567       O  0.56428955  0.76786221  0.68152781    -0.83100
O2568       O  0.74547729  0.74457423  0.68003812    -0.78800
O2569       O  0.71958212  0.90232085  0.76350562    -0.78800
O2570       O  0.63616824  0.89492979  0.70196811    -0.78500
O2571       O  0.66412673  0.73768955  0.61639213    -0.82000
O2572       O  0.61887127  0.69025290  0.70051379    -0.81400
O2573       O  0.60885849  0.76278479  0.76336218    -0.79700
Eu2574     Eu  0.70359863  0.76904422  0.65704694     2.39800
Eu2575     Eu  0.67851257  0.86936470  0.72314949     2.39600
Eu2576     Eu  0.75532336  0.83218355  0.72246896     2.38400
Eu2577     Eu  0.62923930  0.80914529  0.65769311     2.39900
Eu2578     Eu  0.64191111  0.75641566  0.72248152     2.39800
O2579       O  0.62973554  0.80741469  0.70674794    -0.94100
O2580       O  0.70423238  0.76920602  0.70623850    -0.93000
C2581       C  0.62305483  0.67739366  0.67634830     1.01000
C2582       C  0.60884162  0.79386015  0.77265335     0.99700
C2583       C  0.76598327  0.75077803  0.70297945     0.99100
C2584       C  0.63421405  0.73971951  0.60690972     1.01100
C2585       C  0.61649625  0.88957723  0.67868040     1.00100
C2586       C  0.75109083  0.90230226  0.77202640     0.98900
C2587       C  0.71646589  0.76014026  0.77125922     0.99000
C2588       C  0.55051864  0.74764061  0.70450052     1.01600
H2589       H  0.69219352  0.81914251  0.75943717     0.29000
O2590       O  0.69209211  0.81932055  0.73905388    -1.06300
H2591       H  0.61769631  0.73632259  0.66605072     0.31000
O2592       O  0.64104938  0.75930455  0.67334200    -1.08900
O2593       O  0.69981038  0.75722276  0.11809045    -0.81400
O2594       O  0.56522511  0.78097201  0.21840525    -0.83000
O2595       O  0.60564937  0.69762973  0.15898054    -0.80000
O2596       O  0.61740270  0.80977049  0.11836842    -0.78400
O2597       O  0.66444236  0.87637427  0.11616437    -0.80200
O2598       O  0.63443930  0.69087200  0.19910614    -0.81100
O2599       O  0.55860327  0.74739257  0.17741299    -0.82400
O2600       O  0.63303532  0.73714973  0.11568348    -0.82700
Eu2601     Eu  0.62547251  0.76913362  0.15661615     2.39200
O2602       O  0.63957119  0.83148618  0.17284746    -0.90200
O2603       O  0.67613678  0.75662705  0.17306244    -0.93800
C2604       C  0.66443911  0.73762277  0.10656149     1.00800
C2605       C  0.54457663  0.75263651  0.20076577     1.00700
C2606       C  0.61504173  0.67740558  0.17576646     1.00600
C2607       C  0.63326959  0.84524922  0.10712025     0.98500
H2608       H  0.60283750  0.74468422  0.21318293     0.28200
O2609       O  0.62669012  0.76735594  0.20594152    -1.02600
H2610       H  0.68919867  0.81888243  0.12067434     0.28300
O2611       O  0.68908046  0.81883347  0.14082607    -1.05200
O2612       O  0.67589092  0.87850560  0.26128468    -0.82400
O2613       O  0.80997602  0.85949837  0.15902792    -0.81900
O2614       O  0.62922574  0.74693631  0.26222192    -0.80400
O2615       O  0.64979466  0.90091852  0.15895433    -0.83700
O2616       O  0.75194781  0.88974439  0.11910073    -0.81600
O2617       O  0.72791371  0.73431990  0.21807422    -0.80200
O2618       O  0.75947920  0.83116157  0.26283064    -0.81700
O2619       O  0.77206528  0.94234378  0.21925377    -0.83700
O2620       O  0.71527378  0.76362563  0.26322083    -0.80400
O2621       O  0.74616376  0.94931543  0.17781977    -0.83100
O2622       O  0.60617202  0.79131724  0.26252457    -0.78800
O2623       O  0.76164883  0.76109374  0.17713439    -0.78800
O2624       O  0.77176909  0.84294674  0.11653876    -0.78500
O2625       O  0.61376209  0.87146578  0.19858931    -0.82000
O2626       O  0.74337591  0.90144264  0.26278117    -0.81400
O2627       O  0.81709676  0.89481848  0.19922303    -0.79700
Eu2628     Eu  0.63773663  0.83024195  0.22188203     2.39800
Eu2629     Eu  0.73879954  0.80516835  0.15722478     2.39600
Eu2630     Eu  0.67689206  0.75594661  0.22219321     2.38400
Eu2631     Eu  0.70282706  0.88225555  0.15700566     2.39900
Eu2632     Eu  0.75155750  0.86987255  0.22252404     2.39800
O2633       O  0.75107189  0.86817297  0.17347540    -0.94100
O2634       O  0.68868752  0.81862504  0.23770079    -0.93000
C2635       C  0.71156429  0.89954023  0.27226313     1.01000
C2636       C  0.83017081  0.88960193  0.17549179     0.99700
C2637       C  0.60839202  0.76204304  0.27288233     0.99100
C2638       C  0.61992343  0.89141649  0.17555383     1.01100
C2639       C  0.77171277  0.87408718  0.10770373     1.00100
C2640       C  0.75676806  0.74259685  0.20068287     0.98900
C2641       C  0.74427544  0.79537400  0.27364378     0.99000
C2642       C  0.76414597  0.96298969  0.20163457     1.01600
H2643       H  0.76292314  0.80723612  0.21402496     0.29000
O2644       O  0.74021252  0.80808613  0.20661123    -1.06300
H2645       H  0.69975296  0.90382375  0.21337763     0.31000
O2646       O  0.69939022  0.88036779  0.20619450    -1.08900
O2647       O  0.01070461  0.54705040  0.59519115    -0.81400
O2648       O  0.64449126  0.52538190  0.49256937    -0.83000
O2649       O  0.59680161  0.49941654  0.59599564    -0.80000
O2650       O  0.60702001  0.60964547  0.55315088    -0.78400
O2651       O  0.57846181  0.61604406  0.51280554    -0.80200
O2652       O  0.55295469  0.93186580  0.59681410    -0.81100
O2653       O  0.65106165  0.56181449  0.53206129    -0.82400
O2654       O  0.57823445  0.56981228  0.59615621    -0.82700
Eu2655     Eu  0.58593775  0.53717448  0.55616004     2.39200
O2656       O  0.58468753  0.53539602  0.50698719    -0.90200
O2657       O  0.52327110  0.98580288  0.57177627    -0.93800
C2658       C  0.54673351  0.56853008  0.60572899     1.00800
C2659       C  0.66480707  0.55549205  0.50900964     1.00700
C2660       C  0.58249047  0.96367380  0.60681414     1.00600
C2661       C  0.59794472  0.63003845  0.53615736     0.98500
H2662       H  0.59757815  0.97465361  0.54740711     0.28200
O2663       O  0.57472851  0.97550045  0.54016069    -1.02600
H2664       H  0.53346427  0.57063084  0.54757459     0.28300
O2665       O  0.53298701  0.54712544  0.54033485    -1.05200
O2666       O  0.53284237  0.92384672  0.45192808    -0.82400
O2667       O  0.89917256  0.94485374  0.55311821    -0.81900
O2668       O  0.56172404  0.90032175  0.55311294    -0.80400
O2669       O  0.58416867  0.55831300  0.45238695    -0.83700
O2670       O  0.98116205  0.56572646  0.49229702    -0.81600
O2671       O  0.96505980  0.91384171  0.59659434    -0.80200
O2672       O  0.94030304  0.86384760  0.49330125    -0.81700
O2673       O  0.94903556  0.97573638  0.45389601    -0.83700
O2674       O  0.97070034  0.85748941  0.53264063    -0.80400
O2675       O  0.99540884  0.54235649  0.45058976    -0.83100
O2676       O  0.59577560  0.92825049  0.51244123    -0.78800
O2677       O  0.94193512  0.95820680  0.59767552    -0.78800
O2678       O  0.94431736  0.53499346  0.53140554    -0.78500
O2679       O  0.60443361  0.51186184  0.44955042    -0.82000
O2680       O  0.96598549  0.90356989  0.45006271    -0.81400
O2681       O  0.89274500  0.91163502  0.51197466    -0.79700
Eu2682     Eu  0.57296179  0.97239649  0.49072192     2.39800
Eu2683     Eu  0.97143940  0.99688700  0.55647329     2.39600
Eu2684     Eu  0.51211085  0.92308831  0.55645337     2.38400
Eu2685     Eu  0.53562096  0.54905798  0.49104247     2.39900
Eu2686     Eu  0.95958996  0.93541293  0.49128717     2.39800
O2687       O  0.97313239  0.99761934  0.50748317    -0.94100
O2688       O  0.51082509  0.92350630  0.50725944    -0.93000
C2689       C  0.49723005  0.90406759  0.44066374     1.01000
C2690       C  0.87881464  0.91622108  0.53549967     0.99700
C2691       C  0.59038106  0.90856520  0.53568395     0.99100
C2692       C  0.60400385  0.54294874  0.44071931     1.01100
C2693       C  0.95028796  0.55468764  0.50814650     1.00100
C2694       C  0.94443459  0.92885325  0.60763806     0.98900
C2695       C  0.95029689  0.84361610  0.50962724     0.99000
C2696       C  0.96365844  0.01097217  0.44237753     1.01600
H2697       H  0.93811156  0.91114960  0.54805502     0.29000
O2698       O  0.96146650  0.93411803  0.54067673    -1.06300
H2699       H  0.52222262  0.98563825  0.45484052     0.31000
O2700       O  0.52260652  0.98568712  0.47501826    -1.08900
C2701       C  0.62889206  0.63127536  0.84149344    -0.03100
C2702       C  0.64637899  0.67252367  0.84624548     0.06500
C2703       C  0.62498097  0.68894500  0.85867290    -0.03300
C2704       C  0.58573213  0.66365158  0.86708793    -0.03300
C2705       C  0.56755274  0.62263720  0.86108298     0.06700
C2706       C  0.58908886  0.60612744  0.84894830    -0.03500
Br2707     Br  0.56441738  0.54907934  0.84375612    -0.02000
Br2708     Br  0.65875327  0.60957300  0.82374865    -0.02100
Br2709     Br  0.55858292  0.68447691  0.88946456    -0.02000
Br2710     Br  0.64950520  0.74597354  0.86398875    -0.02000
C2711       C  0.56145110  0.75249596  0.01859807    -0.03100
C2712       C  0.54801867  0.77638794  0.03123764     0.06500
C2713       C  0.50778033  0.76032444  0.03911105    -0.03300
C2714       C  0.98018965  0.72073163  0.03240823    -0.03300
C2715       C  0.99369339  0.69643698  0.02039604     0.06700
C2716       C  0.53426145  0.71224954  0.01335581    -0.03500
Br2717     Br  0.55204991  0.67966041  0.99456595    -0.02000
Br2718     Br  0.61710253  0.77499053  0.00881879    -0.02100
Br2719     Br  0.92391366  0.70040573  0.03853471    -0.02000
Br2720     Br  0.49121051  0.79132451  0.06133049    -0.02000
C2721       C  0.95684620  0.86367712  0.19634572    -0.03100
C2722       C  0.97966945  0.84930547  0.18314964     0.06500
C2723       C  0.96234679  0.80887227  0.17541420    -0.03300
C2724       C  0.92261669  0.78221677  0.18243078    -0.03300
C2725       C  0.89978735  0.79652639  0.19558927     0.06700
C2726       C  0.91673316  0.83711168  0.20273271    -0.03500
Br2727     Br  0.88563301  0.85568322  0.22266922    -0.02000
Br2728     Br  0.98046400  0.91969119  0.20518843    -0.02100
Br2729     Br  0.89960720  0.72593471  0.17478039    -0.02000
Br2730     Br  0.99183929  0.79059449  0.15314558    -0.02000
C2731       C  0.79363874  0.96515963  0.50780416    -0.03100
C2732       C  0.80794029  0.50628033  0.51117326     0.06500
C2733       C  0.78254208  0.52025904  0.52035777    -0.03300
C2734       C  0.74338952  0.99281589  0.52809753    -0.03300
C2735       C  0.72935109  0.95171879  0.52507541     0.06700
C2736       C  0.75425837  0.93775521  0.51509167    -0.03500
Br2737     Br  0.73442958  0.88113609  0.51193041    -0.02000
Br2738     Br  0.82668824  0.94644128  0.49100537    -0.02100
Br2739     Br  0.71048640  0.01143722  0.54546591    -0.02000
Br2740     Br  0.80110698  0.57680798  0.52207500    -0.02000
C2741       C  0.73145620  0.57834390  0.69912522    -0.03100
C2742       C  0.72531514  0.61052757  0.69316932     0.06500
C2743       C  0.68831578  0.60266722  0.68214557    -0.03300
C2744       C  0.65598645  0.56364181  0.68149481    -0.03300
C2745       C  0.66197693  0.53130898  0.68716363     0.06700
C2746       C  0.69970518  0.53903823  0.69677257    -0.03500
Br2747     Br  0.70850417  0.49670373  0.70771548    -0.02000
Br2748     Br  0.78457573  0.58820890  0.70795929    -0.02100
Br2749     Br  0.60286661  0.55458304  0.67414845    -0.02000
Br2750     Br  0.68298842  0.64339527  0.66352919    -0.02000
C2751       C  0.80393361  0.88201924  0.36791427    -0.03100
C2752       C  0.81922521  0.85939682  0.35574499     0.06500
C2753       C  0.86050631  0.87612465  0.35114712    -0.03300
C2754       C  0.88664476  0.91510496  0.35994757    -0.03300
C2755       C  0.87103395  0.93867859  0.37002281     0.06700
C2756       C  0.82972184  0.92232153  0.37401898    -0.03500
Br2757     Br  0.80873208  0.95437959  0.38912628    -0.02000
Br2758     Br  0.74816168  0.85744104  0.37712374    -0.02100
Br2759     Br  0.94372427  0.93577815  0.35881554    -0.02000
Br2760     Br  0.88109831  0.84711243  0.33076296    -0.02000
C2761       C  0.89940457  0.55340642  0.16722286    -0.03100
C2762       C  0.91784362  0.53278608  0.17814764     0.06500
C2763       C  0.95235510  0.55235100  0.19478430    -0.03300
C2764       C  0.96920555  0.59312256  0.20001012    -0.03300
C2765       C  0.94981538  0.61329879  0.19012846     0.06700
C2766       C  0.91533385  0.59387381  0.17350273    -0.03500
Br2767     Br  0.89086067  0.62317092  0.15913030    -0.02000
Br2768     Br  0.85262777  0.02623852  0.14367660    -0.02100
Br2769     Br  0.51890227  0.62155555  0.22053020    -0.02000
Br2770     Br  0.47580304  0.52294773  0.21077913    -0.02000
C2771       C  0.63529639  0.70065090  0.36474985    -0.03100
C2772       C  0.59630736  0.68676722  0.35471270     0.06500
C2773       C  0.56986811  0.64568411  0.35069112    -0.03300
C2774       C  0.58284142  0.61851543  0.35616893    -0.03300
C2775       C  0.62160640  0.63237956  0.36657003     0.06700
C2776       C  0.64758240  0.67327319  0.37159558    -0.03500
Br2777     Br  0.69866978  0.69139164  0.38953193    -0.02000
Br2778     Br  0.67176978  0.75701418  0.36866365    -0.02100
Br2779     Br  0.54801112  0.56233442  0.34881392    -0.02000
Br2780     Br  0.51684425  0.62670406  0.33576197    -0.02000
C2781       C  0.79436152  0.52318586  0.02818829    -0.03100
C2782       C  0.75586583  0.50739950  0.01669823     0.06500
C2783       C  0.73104868  0.96608870  0.01264032    -0.03300
C2784       C  0.74496016  0.94032375  0.02022373    -0.03300
C2785       C  0.78380400  0.95624680  0.03108836     0.06700
C2786       C  0.80803163  0.99739439  0.03609160    -0.03500
Br2787     Br  0.85824201  0.51801140  0.05590584    -0.02000
Br2788     Br  0.82865944  0.58019253  0.03233995    -0.02100
Br2789     Br  0.71080991  0.88329123  0.01629362    -0.02000
Br2790     Br  0.67950637  0.94509392  0.99478913    -0.02000
C2791       C  0.81342955  0.75933509  0.53459181    -0.03100
C2792       C  0.78810009  0.77453326  0.52774334     0.06500
C2793       C  0.75086563  0.75026312  0.51498525    -0.03300
C2794       C  0.73810453  0.71008921  0.50990326    -0.03300
C2795       C  0.76324904  0.69472164  0.51693188     0.06700
C2796       C  0.80141895  0.71953212  0.52840038    -0.03500
Br2797     Br  0.83727842  0.69919813  0.53510363    -0.02000
Br2798     Br  0.86349346  0.79241984  0.55377316    -0.02100
Br2799     Br  0.68730956  0.67686229  0.49149592    -0.02000
Br2800     Br  0.71796224  0.77247182  0.50392059    -0.02000
C2801       C  0.96793391  0.86400800  0.70091274    -0.03100
C2802       C  0.93104932  0.84923697  0.68710235     0.06500
C2803       C  0.90791776  0.80860363  0.67985868    -0.03300
C2804       C  0.92122047  0.78232122  0.68730426    -0.03300
C2805       C  0.95831008  0.79719963  0.70074179     0.06700
C2806       C  0.98146780  0.83774775  0.70807281    -0.03500
Br2807     Br  0.53033743  0.85668245  0.72930750    -0.02000
Br2808     Br  0.50014160  0.92019358  0.70925355    -0.02100
Br2809     Br  0.88854168  0.72586462  0.67965833    -0.02000
Br2810     Br  0.85974149  0.78950410  0.65779598    -0.02000
C2811       C  0.57180794  0.87041543  0.86677692    -0.03100
C2812       C  0.59926264  0.86262372  0.85293114     0.06500
C2813       C  0.63669138  0.89482915  0.84495034    -0.03300
C2814       C  0.64428678  0.93406364  0.84714402    -0.03300
C2815       C  0.61613882  0.94175069  0.86014079     0.06700
C2816       C  0.57867734  0.90942982  0.86802832    -0.03500
Br2817     Br  0.53561475  0.91839386  0.87895860    -0.02000
Br2818     Br  0.52949888  0.83031568  0.88904675    -0.02100
Br2819     Br  0.69167309  0.97575707  0.82995115    -0.02000
Br2820     Br  0.67946045  0.88535928  0.83409138    -0.02000
C2821       C  0.72773423  0.58634529  0.17366490    -0.03100
C2822       C  0.71491301  0.55570041  0.19357825     0.06500
C2823       C  0.67803456  0.54123190  0.20748948    -0.03300
C2824       C  0.65318659  0.55656238  0.20069901    -0.03300
C2825       C  0.66584939  0.58680568  0.18060552     0.06700
C2826       C  0.70312007  0.60215737  0.16723657    -0.03500
Br2827     Br  0.72024317  0.64501234  0.14034946    -0.02000
Br2828     Br  0.77938603  0.60746950  0.15617868    -0.02100
Br2829     Br  0.60177035  0.53615379  0.21851911    -0.02000
Br2830     Br  0.66243986  0.00175022  0.23679954    -0.02000
C2831       C  0.58831830  0.92848751  0.34940989    -0.03100
C2832       C  0.56559391  0.89134299  0.36264938     0.06500
C2833       C  0.58292142  0.86817167  0.37027318    -0.03300
C2834       C  0.62304843  0.88193377  0.36409467    -0.03300
C2835       C  0.64508492  0.91797279  0.34956155     0.06700
C2836       C  0.62782646  0.94113809  0.34184983    -0.03500
Br2837     Br  0.65761970  0.98893247  0.31971585    -0.02000
Br2838     Br  0.56575289  0.96234446  0.34245495    -0.02100
Br2839     Br  0.64816286  0.85194936  0.37574968    -0.02000
Br2840     Br  0.55241106  0.81877503  0.39064108    -0.02000
C2841       C  0.78955091  0.71493891  0.02569386    -0.03100
C2842       C  0.81296888  0.75370612  0.01506450     0.06500
C2843       C  0.79660329  0.77849531  0.01027610    -0.03300
C2844       C  0.75652033  0.76458046  0.01690493    -0.03300
C2845       C  0.73322228  0.72595994  0.02792900     0.06700
C2846       C  0.74972671  0.70124757  0.03263986    -0.03500
Br2847     Br  0.71888122  0.64987262  0.05046434    -0.02000
Br2848     Br  0.81203233  0.68043054  0.03015853    -0.02100
Br2849     Br  0.73331863  0.79803685  0.01085971    -0.02000
Br2850     Br  0.82819628  0.83010138  0.99289235    -0.02000
C2851       C  0.53567756  0.77409296  0.51230394    -0.03100
C2852       C  0.99443924  0.74682562  0.51438164     0.06500
C2853       C  0.48043024  0.70704395  0.52250986    -0.03300
C2854       C  0.50778637  0.69546102  0.53099477    -0.03300
C2855       C  0.54902040  0.72309521  0.52968898     0.06700
C2856       C  0.56304565  0.76249893  0.52067132    -0.03500
Br2857     Br  0.61966915  0.80059724  0.51989223    -0.02000
Br2858     Br  0.05468750  0.82540109  0.49467436    -0.02100
Br2859     Br  0.48856865  0.64307661  0.54687407    -0.08000
Br2860     Br  0.42401792  0.66808426  0.52106659    -0.02000
C2861       C  0.82815213  0.87568005  0.84138829    -0.03100
C2862       C  0.83330468  0.91290163  0.84994645     0.06500
C2863       C  0.86908144  0.94059870  0.86322291    -0.03300
C2864       C  0.90136539  0.93392597  0.86372512    -0.03300
C2865       C  0.89584365  0.89646626  0.85585123     0.06700
C2866       C  0.86012687  0.86851956  0.84265516    -0.03500
Br2867     Br  0.85491031  0.82164346  0.82471566    -0.02000
Br2868     Br  0.77564733  0.83225068  0.83180237    -0.02100
Br2869     Br  0.95341624  0.97567475  0.87590660    -0.02000
Br2870     Br  0.87147760  0.98202597  0.88656131    -0.02000
C2871       C  0.96170312  0.54664931  0.69709185    -0.03100
C2872       C  0.98358057  0.58490986  0.68553662     0.06500
C2873       C  0.96610273  0.60852110  0.68007020    -0.03300
C2874       C  0.92570057  0.59310232  0.68577594    -0.03300
C2875       C  0.90411580  0.55536715  0.69820954     0.06700
C2876       C  0.92178195  0.53196257  0.70394881    -0.03500
Br2877     Br  0.89177906  0.98034847  0.72156001    -0.02000
Br2878     Br  0.98642458  0.51433733  0.70260869    -0.02100
Br2879     Br  0.89908333  0.62209081  0.67507341    -0.02000
Br2880     Br  0.49675697  0.66065531  0.66318068    -0.02000
loop_ 
_geom_bond_atom_site_label_1 
_geom_bond_atom_site_label_2 
_geom_bond_distance 
_geom_bond_site_symmetry_2 
_ccdc_geom_bond_type 
C1          C390   1.476       .  S
C1          N722   1.375       .  A
C1          N726   1.351       .  A
N2            C3   1.374       .  A
N2          C721   1.375   1_545  A
C3          C228   1.468       .  S
C3            N4   1.343       .  A
N4            C5   1.341       .  A
C5          C715   1.432       .  S
C5            N6   1.344       .  A
N6          C721   1.351   1_545  A
C7          C421   1.478       .  S
C7            N8   1.377       .  A
C7           N12   1.350       .  A
N8            C9   1.378       .  A
C9          C498   1.470       .  S
C9           N10   1.338       .  A
N10          C11   1.339       .  A
C11        C2152   1.425   1_455  S
C11          N12   1.343       .  A
C13         C950   1.485       .  S
C13          N14   1.375       .  A
C13          N18   1.359       .  A
N14          C15   1.372       .  A
C15         C426   1.470       .  S
C15          N16   1.339       .  A
N16          C17   1.342       .  A
C17         C702   1.472       .  S
C17          N18   1.352       .  A
C19         C266   1.484       .  S
C19          N20   1.377       .  A
C19          N24   1.355       .  A
N20          C21   1.375       .  A
C21         C282   1.472       .  S
C21          N22   1.336       .  A
N22          C23   1.345       .  A
C23         C705   1.462       .  S
C23          N24   1.349       .  A
C25         C535   1.493       .  S
C25          N26   1.359       .  A
C25          N30   1.377       .  A
N26          C27   1.353       .  A
C27         C692   1.448       .  S
C27          N28   1.338       .  A
N28          C29   1.340       .  A
C29         C336   1.469       .  S
C29          N30   1.377       .  A
C31         C501   1.496       .  S
C31          N32   1.377       .  A
C31          N36   1.359       .  A
N32          C33   1.379       .  A
C33         C424   1.471       .  S
C33          N34   1.341       .  A
N34          C35   1.340       .  A
C35         C695   1.449       .  S
C35          N36   1.353       .  A
C37         C285   1.489       .  S
C37          N38   1.358       .  A
C37          N42   1.377   1_554  A
N38          C39   1.350       .  A
C39         C682   1.441       .  S
C39          N40   1.338   1_554  A
N40          C41   1.339       .  A
C41         C259   1.471       .  S
C41          N42   1.378       .  A
C43         C319   1.486       .  S
C43          N44   1.374       .  A
C43          N48   1.358       .  A
N44          C45   1.375       .  A
C45         C444   1.469       .  S
C45          N46   1.343       .  A
N46          C47   1.341       .  A
C47         C685   1.446       .  S
C47          N48   1.351       .  A
C49         C338   1.492       .  S
C49          N50   1.359       .  A
C49          N54   1.377       .  A
N50        C1491   1.352       .  A
C51         C672   1.445       .  S
C51          N52   1.339       .  A
C51        N1490   1.352   1_455  A
N52        C1493   1.342   1_455  A
C53        C1969   1.470       .  S
C53          N54   1.377       .  A
C53        N1492   1.342       .  A
C55        C1094   1.487       .  S
C55          N56   1.358       .  A
C55          N60   1.373       .  A
N56          C57   1.350       .  A
C57         C675   1.443       .  S
C57          N58   1.340       .  A
N58          C59   1.342       .  A
C59         C475   1.464       .  S
C59          N60   1.376       .  A
C61         C446   1.480       .  S
C61          N62   1.357       .  A
C61          N66   1.374       .  A
N62          C63   1.347       .  A
C63         C665   1.438       .  S
C63          N64   1.337       .  A
N64          C65   1.340       .  A
C65         C313   1.461       .  S
C65          N66   1.374       .  A
C67        C1202   1.494   1_545  S
C67          N68   1.361       .  A
C67          N72   1.376       .  A
N68          C69   1.353       .  A
C69         C662   1.443       .  S
C69          N70   1.339       .  A
N70          C71   1.338       .  A
C71         C367   1.467       .  S
C71          N72   1.377       .  A
C73        C1700   1.490       .  S
C73          N74   1.359       .  A
C73          N78   1.378       .  A
N74          C75   1.352       .  A
C75         C652   1.475       .  S
C75          N76   1.344       .  A
N76          C77   1.340       .  A
C77         C422   1.478       .  S
C77          N78   1.375       .  A
C79         C229   1.495       .  S
C79          N80   1.377       .  A
C79          N84   1.360       .  A
N80          C81   1.376       .  A
C81        C1004   1.474       .  S
C81         N802   1.337   1_545  A
N82          C83   1.343       .  A
N82         C801   1.337       .  A
C83         C655   1.474       .  S
C83         N804   1.354       .  A
N84         C803   1.354   1_545  A
C85         C392   1.491       .  S
C85          N86   1.374       .  A
C85          N90   1.359       .  A
N86          C87   1.376       .  A
C87         C534   1.468       .  S
C87          N88   1.341       .  A
N88          C89   1.341       .  A
C89         C642   1.443       .  S
C89          N90   1.352       .  A
C91         C428   1.484       .  S
C91        N1532   1.357   1_455  A
C91        N1536   1.376   1_455  A
N92          C93   1.348       .  A
N92        C1531   1.357       .  A
C93         C645   1.439       .  S
C93          N94   1.337       .  A
N94          C95   1.340       .  A
C95         C263   1.465       .  S
C95          N96   1.376       .  A
N96        C1531   1.376       .  A
C97         C499   1.490       .  S
C97          N98   1.375       .  A
C97         N102   1.359       .  A
N98          C99   1.375       .  A
C99         C339   1.468       .  S
C99         N100   1.342       .  A
N100        C101   1.340       .  A
C101        C635   1.447       .  S
C101        N102   1.352       .  A
C103        C530   1.487       .  S
C103        N104   1.359       .  A
C103        N108   1.372       .  A
N104        C105   1.351       .  A
C105        C632   1.448       .  S
C105        N106   1.343       .  A
N106        C107   1.344       .  A
C107        C391   1.468       .  S
C107        N108   1.374       .  A
C109        C315   1.490       .  S
C109        N110   1.358       .  A
C109        N114   1.376   1_554  A
N110        C111   1.350       .  A
C111        C622   1.441       .  S
C111        N112   1.339   1_554  A
N112        C113   1.340       .  A
C113        C261   1.470       .  S
C113        N114   1.378       .  A
C115        C317   1.483       .  S
C115        N116   1.357       .  A
C115        N120   1.375       .  A
N116        C117   1.349       .  A
C117        C625   1.438       .  S
C117        N118   1.335       .  A
N118        C119   1.338       .  A
C119        C479   1.460       .  S
C119        N120   1.375       .  A
C121        C370   1.490       .  S
C121        N122   1.377       .  A
C121        N126   1.359       .  A
N122        C123   1.377       .  A
C123        C532   1.473       .  S
C123        N124   1.343       .  A
N124        C125   1.340       .  A
C125        C615   1.447       .  S
C125        N126   1.350       .  A
C127       C1812   1.496   1_455  S
C127        N128   1.358       .  A
C127        N132   1.377       .  A
N128        C129   1.353       .  A
C129        C612   1.449       .  S
C129        N130   1.342       .  A
N130        C131   1.342       .  A
C131        C477   1.474       .  S
C131        N132   1.379       .  A
C133        C445   1.489       .  S
C133       N1574   1.356   1_455  A
C133       N1578   1.378   1_455  A
N134        C135   1.348       .  A
N134       C1573   1.356       .  A
C135        C605   1.441       .  S
C135        N136   1.343       .  A
N136        C137   1.343       .  A
C137        C373   1.478       .  S
C137        N138   1.379       .  A
N138       C1573   1.378       .  A
C139        C476   1.488       .  S
C139        N140   1.377       .  A
C139        N144   1.359       .  A
N140        C141   1.377       .  A
C141        C320   1.474       .  S
C141        N142   1.343       .  A
N142        C143   1.340       .  A
C143       C1322   1.443       .  S
C143        N144   1.349       .  A
C145        C337   1.489       .  S
C145        N146   1.358       .  A
C145        N150   1.373       .  A
N146        C147   1.352       .  A
C147        C592   1.447       .  S
C147        N148   1.343       .  A
N148        C149   1.343       .  A
C149        C481   1.467       .  S
C149        N150   1.375       .  A
C151        C368   1.491       .  S
C151        N152   1.359       .  A
C151        N156   1.379       .  A
N152        C873   1.350   1_545  A
C153        C595   1.444       .  S
C153        N154   1.337       .  A
C153        N872   1.350       .  A
N154        C875   1.340       .  A
C155       C1256   1.473       .  S
C155        N156   1.378       .  A
C155        N874   1.340   1_545  A
C157        C423   1.496       .  S
C157        N158   1.359       .  A
C157        N162   1.377       .  A
N158        C159   1.354       .  A
C159        C582   1.475       .  S
C159        N160   1.344       .  A
N160        C161   1.341       .  A
C161        C231   1.474       .  S
C161        N162   1.376       .  A
C163        C425   1.502       .  S
C163        N164   1.377       .  A
C163        N168   1.360       .  A
N164        C165   1.378       .  A
C165        C500   1.479       .  S
C165        N166   1.341       .  A
N166        C167   1.345       .  A
C167       C1305   1.476       .  S
C167        N168   1.357       .  A
C169        C533   1.496       .  S
C169        N170   1.358       .  A
C169        N174   1.379       .  A
N170        C171   1.352       .  A
C171        C572   1.445       .  S
C171        N172   1.338       .  A
N172        C173   1.341       .  A
C173        C371   1.474       .  S
C173        N174   1.379       .  A
C175        C531   1.492       .  S
C175        N176   1.355       .  A
C175        N180   1.378       .  A
N176        C177   1.350       .  A
C177        C575   1.440       .  S
C177        N178   1.341       .  A
N178        C179   1.340       .  A
C179        C393   1.473       .  S
C179        N180   1.380       .  A
C181        C480   1.487       .  S
C181        N182   1.361       .  A
C181        N186   1.373       .  A
N182        C183   1.352       .  A
C183        C565   1.446       .  S
C183        N184   1.339       .  A
N184        C185   1.341       .  A
C185        C369   1.465       .  S
C185        N186   1.375       .  A
C187        C478   1.488       .  S
C187        N188   1.374       .  A
C187        N192   1.360       .  A
N188        C189   1.375       .  A
C189        C316   1.466       .  S
C189        N190   1.342       .  A
N190        C191   1.339       .  A
C191       C2002   1.447   1_455  S
C191        N192   1.352       .  A
C193        C314   1.490       .  S
C193        N194   1.371   1_554  A
C193        N198   1.362       .  A
N194        C195   1.373       .  A
C195        C265   1.460       .  S
C195        N196   1.340       .  A
N196        C197   1.339   1_556  A
C197        C555   1.447       .  S
C197        N198   1.354       .  A
C199        C283   1.484       .  S
C199        N200   1.359       .  A
C199        N204   1.374       .  A
N200        C201   1.350       .  A
C201        C552   1.442       .  S
C201        N202   1.337       .  A
N202        C203   1.340       .  A
C203        C447   1.461       .  S
C203        N204   1.375       .  A
C205        C262   1.477       .  S
C205        N206   1.376       .  A
C205        N210   1.354       .  A
N206        C207   1.375       .  A
C207        C427   1.466       .  S
C207        N208   1.341       .  A
N208        C209   1.338       .  A
C209        C542   1.433       .  S
C209        N210   1.345       .  A
C211        C264   1.477       .  S
C211        N212   1.356       .  A
C211        N216   1.372       .  A
N212       C1653   1.349       .  A
C213        C545   1.432       .  S
C213        N214   1.337       .  A
C213       N1652   1.349   1_455  A
N214       C1655   1.338   1_455  A
C215       C1758   1.456       .  S
C215        N216   1.371       .  A
C215       N1654   1.338       .  A
O217        C228   1.305       .  A
O217       Eu253   2.522       .  S
O218        C229   1.295       .  A
O218       Eu252   2.494       .  S
O219        C230   1.292       .  A
O219       Eu225   2.486       .  S
O220        C231   1.310       .  A
O220       Eu225   2.545       .  S
O221        C231   1.281       .  A
O221       Eu255   2.402       .  S
O222        C230   1.295       .  A
O222       Eu254   2.470       .  S
O223        C229   1.302       .  A
O223       Eu225   2.506       .  S
O224        C228   1.283       .  A
O224       Eu225   2.410       .  S
Eu225       O235   2.367       .  S
Eu225       O227   2.365       .  S
Eu225       O226   2.321       .  S
Eu225       O233   2.359       .  S
O226       Eu255   2.365       .  S
O226       Eu252   2.342       .  S
O227       Eu253   2.324       .  S
O227       Eu254   2.340       .  S
C230        C733   1.485   1_545  S
H232        O233   0.961       .  S
O233       Eu254   2.319       .  S
O233       Eu252   2.378       .  S
H234        O235   0.963       .  S
O235       Eu253   2.361       .  S
O235       Eu255   2.358       .  S
O236        C259   1.311       .  A
O236       Eu252   2.552       .  S
O237        C260   1.291       .  A
O237       Eu253   2.478       .  S
O238        C261   1.310       .  A
O238       Eu254   2.545       .  S
O239        C262   1.288       .  A
O239       Eu255   2.464       .  S
O240        C263   1.306       .  A
O240       Eu255   2.523       .  S
O241        C264   1.292       .  A
O241       Eu254   2.478       .  S
O242        C265   1.307       .  A
O242       Eu256   2.533       .  S
O243        C266   1.290       .  A
O243       Eu256   2.470       .  S
O244        C265   1.276       .  A
O244       Eu254   2.375       .  S
O245        C266   1.299       .  A
O245       Eu255   2.490       .  S
O246        C261   1.278       .  A
O246       Eu252   2.387       .  S
O247        C264   1.294       .  A
O247       Eu253   2.466       .  S
O248        C263   1.278       .  A
O248       Eu253   2.395       .  S
O249        C262   1.296       .  A
O249       Eu252   2.473       .  S
O250        C259   1.278       .  A
O250       Eu256   2.387       .  S
O251        C260   1.299       .  A
O251       Eu256   2.491       .  S
Eu252       O270   2.320       .  S
Eu252       O258   2.350       .  S
Eu253       O257   2.368       .  S
Eu253       O268   2.358       .  S
Eu254       O268   2.379       .  S
Eu254       O258   2.348       .  S
Eu255       O257   2.324       .  S
Eu255       O270   2.352       .  S
Eu256       O257   2.347       .  S
Eu256       O268   2.313       .  S
Eu256       O270   2.378       .  S
Eu256       O258   2.355       .  S
C260       C1513   1.490       .  S
H267        O268   0.963       .  S
H269        O270   0.960       .  S
O271        C282   1.312       .  A
O271       Eu307   2.557       .  S
O272        C283   1.292       .  A
O272       Eu306   2.483       .  S
O273        C284   1.311       .  A
O273       Eu279   2.551       .  S
O274        C285   1.292   1_556  A
O274      Eu1719   2.480       .  S
O275        C285   1.301       .  A
O275       Eu309   2.497       .  S
O276       C1004   1.278       .  A
O276       Eu308   2.393       .  S
O277        C283   1.295       .  A
O277       Eu279   2.470   1_554  S
O278        C282   1.278       .  A
O278      Eu1719   2.388       .  S
Eu279      O1714   2.480   1_455  S
Eu279      O1718   2.388   1_455  S
Eu279       O281   2.356       .  S
Eu279       O280   2.345   1_556  S
Eu279       O287   2.313   1_556  S
Eu279      O1729   2.374   1_456  S
O280       Eu306   2.369       .  S
O280      Eu1749   2.324   1_455  S
O281      Eu1747   2.364   1_455  S
O281      Eu1028   2.362       .  S
C284        C801   1.474       .  S
C284        O996   1.278       .  A
H286        O287   0.962   1_556  S
O287       Eu306   2.349       .  S
O287      Eu1028   2.370   1_554  S
H288        O289   0.964   1_556  S
O289       Eu307   2.322   1_554  S
O289       Eu309   2.352       .  S
O289      Eu1719   2.374   1_554  S
O290        C313   1.306       .  A
O290      Eu1026   2.524       .  S
O291        C314   1.298   1_556  A
O291      Eu1027   2.513   1_545  S
O292        C315   1.293   1_556  A
O292       Eu308   2.491       .  S
O293       C1756   1.307       .  A
O293       Eu309   2.529       .  S
O294        C317   1.291       .  A
O294       Eu309   2.476       .  S
O295        C318   1.305       .  A
O295       Eu308   2.520       .  S
O296        C319   1.293       .  A
O296       Eu310   2.487       .  S
O297       C1040   1.306       .  A
O297      Eu1750   2.528   1_565  S
O298        C319   1.296       .  A
O298       Eu308   2.474   1_554  S
O299        C320   1.281       .  A
O299       Eu309   2.411       .  S
O300        C315   1.299       .  A
O300      Eu1026   2.491       .  S
O301       C1758   1.278       .  A
O301      Eu1027   2.386   1_545  S
O302        C317   1.297       .  A
O302       Eu307   2.477   1_554  S
O303        C316   1.280       .  A
O303       Eu306   2.396       .  S
O304        C313   1.278       .  A
O304       Eu310   2.385       .  S
O305        C314   1.294       .  A
O305      Eu1750   2.467       .  S
Eu306      O1010   2.524       .  S
Eu306      O1020   2.491       .  S
Eu306       O324   2.366       .  S
Eu306      O1032   2.325       .  S
Eu307      O1011   2.513       .  S
Eu307      O1021   2.386       .  S
Eu307       O311   2.344   1_556  S
Eu307      O1721   2.364       .  S
Eu307      O2482   2.379   1_556  S
Eu308       O322   2.331   1_556  S
Eu308       O312   2.342   1_556  S
Eu308      O1001   2.362   1_545  S
Eu308      O1007   2.370   1_546  S
Eu309       O311   2.372       .  S
Eu309      O1720   2.324       .  S
Eu309      O1764   2.363       .  S
Eu310      O1737   2.528   1_445  S
Eu310      O1745   2.467   1_455  S
Eu310       O322   2.353       .  S
Eu310       O312   2.371       .  S
Eu310      O2471   2.326   1_445  S
Eu310      O1044   2.361   1_545  S
O311      Eu2470   2.326       .  S
O312      Eu1026   2.325       .  S
C316       O1733   1.307       .  A
C318       C1655   1.456   1_455  S
C318       O1741   1.278   1_455  A
C320       O1017   1.306       .  A
H321        O322   0.966   1_556  S
O322      Eu2467   2.379   1_444  S
H323        O324   0.967       .  S
O324      Eu1749   2.363   1_455  S
O324      Eu1030   2.361       .  S
O325        C336   1.308       .  A
O325       Eu361   2.536       .  S
O326        C337   1.295       .  A
O326       Eu360   2.497       .  S
O327        C338   1.294       .  A
O327       Eu333   2.493       .  S
O328        C339   1.308       .  A
O328       Eu333   2.537       .  S
O329        C339   1.279       .  A
O329       Eu363   2.396       .  S
O330        C338   1.297       .  A
O330       Eu362   2.482       .  S
O331        C337   1.297       .  A
O331       Eu333   2.482       .  S
O332        C336   1.279       .  A
O332       Eu333   2.397       .  S
Eu333       O343   2.364       .  S
Eu333       O335   2.371       .  S
Eu333       O334   2.331       .  S
Eu333       O341   2.360       .  S
O334       Eu363   2.369       .  S
O334       Eu360   2.345       .  S
O335       Eu361   2.327       .  S
O335       Eu362   2.346       .  S
H340        O341   0.964       .  S
O341       Eu362   2.334       .  S
O341       Eu360   2.383       .  S
H342        O343   0.962       .  S
O343       Eu361   2.365       .  S
O343       Eu363   2.364       .  S
O344        C367   1.311       .  A
O344       Eu360   2.552       .  S
O345        C368   1.291       .  A
O345       Eu361   2.481       .  S
O346        C369   1.309       .  A
O346       Eu362   2.540       .  S
O347        C370   1.292       .  A
O347       Eu363   2.486       .  S
O348        C371   1.308       .  A
O348       Eu363   2.531       .  S
O349        C372   1.295       .  A
O349       Eu362   2.499       .  S
O350        C373   1.312       .  A
O350       Eu364   2.561       .  S
O351        C374   1.295       .  A
O351       Eu364   2.496       .  S
O352        C373   1.279       .  A
O352       Eu362   2.395       .  S
O353        C374   1.297       .  A
O353       Eu363   2.480       .  S
O354        C369   1.278       .  A
O354       Eu360   2.385       .  S
O355        C372   1.300       .  A
O355       Eu361   2.496       .  S
O356        C371   1.282       .  A
O356       Eu361   2.413       .  S
O357        C370   1.298       .  A
O357       Eu360   2.486       .  S
O358        C367   1.277       .  A
O358       Eu364   2.382       .  S
O359        C368   1.300       .  A
O359       Eu364   2.494       .  S
Eu360       O378   2.320       .  S
Eu360       O366   2.358       .  S
Eu361       O365   2.366       .  S
Eu361       O376   2.363       .  S
Eu362       O376   2.380       .  S
Eu362       O366   2.355       .  S
Eu363       O365   2.323       .  S
Eu363       O378   2.354       .  S
Eu364       O365   2.339       .  S
Eu364       O376   2.326       .  S
Eu364       O378   2.385       .  S
Eu364       O366   2.355       .  S
C372       C1567   1.496       .  S
C374        C775   1.487   1_545  S
H375        O376   0.962       .  S
H377        O378   0.965       .  S
O379        C390   1.289       .  A
O379       Eu415   2.467       .  S
O380        C391   1.306       .  A
O380       Eu414   2.532       .  S
O381        C392   1.296       .  A
O381       Eu387   2.503       .  S
O382        C393   1.314       .  A
O382       Eu387   2.570       .  S
O383        C393   1.276       .  A
O383       Eu417   2.373       .  S
O384        C392   1.298       .  A
O384       Eu416   2.484       .  S
O385        C391   1.279       .  A
O385       Eu387   2.393       .  S
O386        C390   1.296       .  A
O386       Eu387   2.470       .  S
Eu387       O397   2.333       .  S
Eu387       O389   2.343       .  S
Eu387       O388   2.341       .  S
Eu387       O395   2.380       .  S
O388       Eu417   2.358       .  S
O388       Eu414   2.353       .  S
O389       Eu415   2.363       .  S
O389       Eu416   2.321       .  S
H394        O395   0.962       .  S
O395       Eu416   2.364       .  S
O395       Eu414   2.312       .  S
H396        O397   0.962       .  S
O397       Eu415   2.367       .  S
O397       Eu417   2.377       .  S
O398        C421   1.288       .  A
O398       Eu414   2.460       .  S
O399        C422   1.309       .  A
O399       Eu415   2.542       .  S
O400        C423   1.292       .  A
O400       Eu416   2.486       .  S
O401        C424   1.311       .  A
O401       Eu417   2.553       .  S
O402        C425   1.296       .  A
O402       Eu417   2.506       .  S
O403        C426   1.306       .  A
O403       Eu416   2.527       .  S
O404        C427   1.304       .  A
O404       Eu418   2.513       .  S
O405        C428   1.291       .  A
O405       Eu418   2.475       .  S
O406        C427   1.281       .  A
O406       Eu416   2.408       .  S
O407        C428   1.297       .  A
O407       Eu417   2.478       .  S
O408        C423   1.300       .  A
O408       Eu414   2.498       .  S
O409        C426   1.283       .  A
O409       Eu415   2.412       .  S
O410        C425   1.302       .  A
O410       Eu415   2.507       .  S
O411        C424   1.278       .  A
O411       Eu414   2.387       .  S
O412        C421   1.298       .  A
O412       Eu418   2.482       .  S
O413        C422   1.282       .  A
O413       Eu418   2.413       .  S
Eu414       O432   2.383       .  S
Eu414       O420   2.348       .  S
Eu415       O419   2.320       .  S
Eu415       O430   2.369       .  S
Eu416       O430   2.373       .  S
Eu416       O420   2.369       .  S
Eu417       O419   2.342       .  S
Eu417       O432   2.315       .  S
Eu418       O419   2.367       .  S
Eu418       O430   2.362       .  S
Eu418       O432   2.349       .  S
Eu418       O420   2.336       .  S
H429        O430   0.973       .  S
H431        O432   0.960       .  S
O433        C444   1.306       .  A
O433       Eu469   2.528       .  S
O434        C445   1.292       .  A
O434       Eu468   2.483       .  S
O435        C446   1.291       .  A
O435       Eu441   2.476       .  S
O436        C447   1.307       .  A
O436       Eu441   2.527       .  S
O437        C447   1.278       .  A
O437       Eu471   2.387       .  S
O438        C446   1.296       .  A
O438       Eu470   2.471       .  S
O439        C445   1.300       .  A
O439       Eu441   2.490       .  S
O440        C444   1.281       .  A
O440       Eu441   2.407       .  S
Eu441       O451   2.363       .  S
Eu441       O443   2.371       .  S
Eu441       O442   2.324       .  S
Eu441       O449   2.356       .  S
O442       Eu471   2.368       .  S
O442       Eu468   2.341       .  S
O443       Eu469   2.327       .  S
O443       Eu470   2.345       .  S
H448        O449   0.965       .  S
O449       Eu470   2.325       .  S
O449       Eu468   2.375       .  S
H450        O451   0.962       .  S
O451       Eu469   2.364       .  S
O451       Eu471   2.365       .  S
O452        C475   1.308       .  A
O452       Eu468   2.536       .  S
O453        C476   1.293       .  A
O453       Eu469   2.490       .  S
O454        C477   1.311       .  A
O454       Eu470   2.556       .  S
O455        C478   1.294       .  A
O455       Eu471   2.491       .  S
O456        C479   1.308       .  A
O456       Eu471   2.534       .  S
O457        C480   1.296       .  A
O457       Eu470   2.505       .  S
O458        C481   1.310       .  A
O458       Eu472   2.548       .  S
O459        C482   1.297       .  A
O459       Eu472   2.508       .  S
O460        C481   1.278       .  A
O460       Eu470   2.381       .  S
O461        C482   1.297       .  A
O461       Eu471   2.484       .  S
O462        C477   1.277       .  A
O462       Eu468   2.385       .  S
O463        C480   1.295       .  A
O463       Eu469   2.468       .  S
O464        C479   1.277       .  A
O464       Eu469   2.382       .  S
O465        C478   1.295       .  A
O465       Eu468   2.472       .  S
O466        C475   1.277       .  A
O466       Eu472   2.381       .  S
O467        C476   1.297       .  A
O467       Eu472   2.479       .  S
Eu468       O486   2.319       .  S
Eu468       O474   2.350       .  S
Eu469       O473   2.368       .  S
Eu469       O484   2.359       .  S
Eu470       O484   2.382       .  S
Eu470       O474   2.351       .  S
Eu471       O473   2.323       .  S
Eu471       O486   2.350       .  S
Eu472       O473   2.341       .  S
Eu472       O484   2.331       .  S
Eu472       O486   2.376       .  S
Eu472       O474   2.354       .  S
C482        C787   1.494       .  S
H483        O484   0.961       .  S
H485        O486   0.963       .  S
O487       C1938   1.312       .  A
O487      Eu1243   2.554   1_545  S
O488        C499   1.293       .  A
O488      Eu1242   2.485   1_545  S
O489       C1220   1.312       .  A
O489       Eu495   2.556   1_565  S
O490        C501   1.295       .  A
O490       Eu495   2.502       .  S
O491        C501   1.300       .  A
O491       Eu525   2.497       .  S
O492        C500   1.279       .  A
O492       Eu524   2.401       .  S
O493        C499   1.298       .  A
O493       Eu495   2.484       .  S
O494        C498   1.278       .  A
O494       Eu495   2.388       .  S
Eu495       O505   2.384       .  S
Eu495       O496   2.347       .  S
Eu495      O1217   2.358   1_545  S
Eu495      O1223   2.330   1_545  S
O496       Eu525   2.334       .  S
O496      Eu1242   2.375   1_545  S
O497       Eu524   2.358       .  S
O497      Eu1215   2.358       .  S
O497      Eu1963   2.362   1_455  S
C498       O1927   1.312       .  A
C500       O1209   1.312       .  A
H502        O503   0.963       .  S
O503       Eu524   2.381       .  S
O503       Eu522   2.361       .  S
O503      Eu1215   2.330       .  S
H504        O505   0.964       .  S
O505       Eu525   2.354       .  S
O505      Eu2683   2.325   1_445  S
O506        C529   1.308   1_455  A
O506       Eu522   2.536       .  S
O507        C530   1.295       .  A
O507       Eu523   2.499       .  S
O508        C531   1.292       .  A
O508       Eu524   2.482       .  S
O509        C532   1.307       .  A
O509       Eu525   2.528       .  S
O510        C533   1.293       .  A
O510      Eu1965   2.490       .  S
O511        C534   1.309       .  A
O511      Eu1964   2.542       .  S
O512        C535   1.292       .  A
O512       Eu526   2.483       .  S
O513        C536   1.308       .  A
O513       Eu526   2.533       .  S
O514        C535   1.300       .  A
O514      Eu1964   2.494       .  S
O515       C1256   1.281       .  A
O515      Eu1965   2.407       .  S
O516        C531   1.302       .  A
O516       Eu522   2.504       .  S
O517        C534   1.278       .  A
O517       Eu523   2.389       .  S
O518        C533   1.300       .  A
O518      Eu1243   2.498   1_545  S
O519        C532   1.282       .  A
O519      Eu1242   2.413   1_545  S
O520       C1969   1.279       .  A
O520       Eu526   2.399       .  S
O521        C530   1.296       .  A
O521       Eu526   2.474       .  S
Eu522      O1208   2.485       .  S
Eu522      O1239   2.413       .  S
Eu522       O540   2.367       .  S
Eu522       O528   2.330       .  S
Eu522      O1216   2.375       .  S
Eu523      O1207   2.554       .  S
Eu523      O1238   2.498       .  S
Eu523       O527   2.339       .  S
Eu523       O538   2.382       .  S
Eu523      O1937   2.362       .  S
Eu523      O2665   2.325       .  S
Eu524      O1951   2.542   1_455  S
Eu524      O1954   2.494   1_455  S
Eu524       O528   2.348       .  S
Eu524      O1978   2.325   1_455  S
Eu525      O1950   2.490   1_455  S
Eu525      O1955   2.407   1_455  S
Eu525      O2687   2.367   1_445  S
Eu525      O1260   2.369   1_545  S
Eu526       O527   2.324       .  S
Eu526       O538   2.359       .  S
Eu526      O1980   2.363       .  S
Eu526      O1968   2.370       .  S
O527      Eu2685   2.367       .  S
O528      Eu1966   2.370   1_455  S
C529       C1493   1.470       .  S
C529       O1960   1.279       .  A
C536        C875   1.473       .  S
C536       O1235   1.281       .  A
H537        O538   0.963       .  S
O538      Eu1964   2.325       .  S
H539        O540   0.963       .  S
O540      Eu1245   2.369       .  S
O540      Eu1966   2.363   1_455  S
C541        C542   1.405       .  A
C541        C546   1.394       .  A
C541       Br548   1.930       .  S
C542        C543   1.402       .  A
C543        C544   1.391       .  A
C543       Br550   1.933       .  S
C544        C545   1.406       .  A
C544       Br549   1.934       .  S
C545        C546   1.403       .  A
C546       Br547   1.933       .  S
C551        C552   1.403       .  A
C551        C556   1.397       .  A
C551       Br558   1.931       .  S
C552        C553   1.407       .  A
C553       C1994   1.396   1_455  A
C553       Br560   1.935   1_455  S
C554        C555   1.406       .  A
C554       C1993   1.396       .  A
C554       Br559   1.929       .  S
C555       C1996   1.409       .  A
C556       C1995   1.409   1_455  A
C556       Br557   1.932   1_554  S
C561        C562   1.405       .  A
C561        C566   1.400       .  A
C561       Br568   1.930       .  S
C562       C1631   1.447       .  S
C562        C563   1.408       .  A
C563        C564   1.396       .  A
C563       Br570   1.933       .  S
C564        C565   1.403       .  A
C564       Br569   1.930       .  S
C565        C566   1.407       .  A
C566       Br567   1.932       .  S
C571        C576   1.396       .  A
C571       C1292   1.408       .  A
C571       Br578   1.930       .  S
C572        C573   1.407       .  A
C572       C1291   1.408   1_545  A
C573       C1294   1.395   1_545  A
C573       Br580   1.933       .  S
C574        C575   1.407       .  A
C574       C1293   1.395       .  A
C574       Br579   1.934       .  S
C575        C576   1.402       .  A
C576       Br577   1.931       .  S
C581        C582   1.408       .  A
C581        C586   1.401       .  A
C581       Br588   1.936       .  S
C582        C583   1.405       .  A
C583        C584   1.398       .  A
C583       Br590   1.907       .  S
C584        C585   1.407       .  A
C584       Br589   1.932       .  S
C585        C887   1.476   1_545  S
C585        C586   1.409       .  A
C586       Br587   1.904   1_545  S
C591        C592   1.404       .  A
C591        C596   1.398       .  A
C591       Br598   1.922       .  S
C592        C593   1.407       .  A
C593        C594   1.395       .  A
C593       Br600   1.932       .  S
C594        C595   1.406       .  A
C594       Br599   1.934       .  S
C595        C596   1.405       .  A
C596       Br597   1.930       .  S
C601        C602   1.408       .  A
C601        C606   1.398       .  A
C601      Br1328   1.930       .  S
C602        C863   1.443   1_545  S
C602        C603   1.402       .  A
C603        C604   1.395       .  A
C603      Br2050   1.930       .  S
C604        C605   1.406       .  A
C604      Br2049   1.932       .  S
C605        C606   1.401       .  A
C606       Br607   1.928       .  S
Br608      C1321   1.930       .  S
Br609      C2044   1.932   1_455  S
Br610      C2043   1.930       .  S
C611        C612   1.405       .  A
C611        C616   1.398       .  A
C611       Br618   1.924       .  S
C612        C613   1.408       .  A
C613        C614   1.396       .  A
C613       Br620   1.932       .  S
C614        C615   1.403       .  A
C614       Br619   1.931       .  S
C615        C616   1.406       .  A
C616       Br617   1.931       .  S
C621        C622   1.405       .  A
C621       C1346   1.394   1_545  A
C621       Br628   1.932       .  S
C622       C1343   1.406   1_545  A
C623        C624   1.396       .  A
C623       C1342   1.406       .  A
C623       Br630   1.930   1_554  S
C624        C625   1.404       .  A
C624       Br629   1.931       .  S
C625        C626   1.406       .  A
C626       C1341   1.394       .  A
C626      Br1347   1.933       .  S
Br627      C1346   1.933   1_545  S
C631        C632   1.408       .  A
C631        C636   1.399       .  A
C631       Br638   1.932       .  S
C632        C633   1.402       .  A
C633        C634   1.397       .  A
C633       Br640   1.929       .  S
C634        C635   1.409       .  A
C634       Br639   1.935       .  S
C635        C636   1.406       .  A
C636       Br637   1.931       .  S
C641        C642   1.404       .  A
C641        C646   1.397       .  A
C641      Br2088   1.930       .  S
C642        C643   1.408       .  A
C643        C644   1.395       .  A
C643       Br650   1.932       .  S
C644        C645   1.402       .  A
C644       Br649   1.933       .  S
C645        C646   1.406       .  A
C646      Br2087   1.933       .  S
Br647      C2086   1.933   1_455  S
Br648      C2081   1.930   1_455  S
C651        C652   1.405       .  A
C651        C656   1.397       .  A
C651       Br658   1.918       .  S
C652        C653   1.410       .  A
C653        C654   1.398       .  A
C653       Br660   1.934       .  S
C654        C655   1.408       .  A
C654       Br659   1.918       .  S
C655        C656   1.411       .  A
C656       Br657   1.934       .  S
C661        C662   1.403       .  A
C661        C666   1.397       .  A
C661       Br668   1.929       .  S
C662        C663   1.410       .  A
C663        C664   1.395       .  A
C663      Br1390   1.933       .  S
C664        C665   1.399       .  A
C664       Br669   1.931       .  S
C665        C666   1.407       .  A
C666       Br667   1.933       .  S
Br670      C1383   1.933       .  S
C671        C672   1.405       .  A
C671        C676   1.398       .  A
C671       Br678   1.930       .  S
C672        C673   1.408       .  A
C673        C674   1.396       .  A
C673       Br680   1.933       .  S
C674        C675   1.402       .  A
C674       Br679   1.928       .  S
C675        C676   1.407       .  A
C676       Br677   1.933       .  S
C681        C682   1.403       .  A
C681        C686   1.394       .  A
C681       Br688   1.934       .  S
C682        C683   1.406       .  A
C683        C684   1.398       .  A
C683       Br690   1.931   1_554  S
C684        C685   1.406       .  A
C684       Br689   1.929       .  S
C685        C686   1.407       .  A
C686       Br687   1.931       .  S
C691        C696   1.397       .  A
C691       C2132   1.407   1_455  A
C691      Br2138   1.932       .  S
C692       C2131   1.407       .  A
C692       C2133   1.407       .  A
C693        C694   1.397   1_655  A
C693       C2132   1.407       .  A
C693       Br700   1.934       .  S
C694        C695   1.407       .  A
C694       Br699   1.931   1_455  S
C695        C696   1.406       .  A
C696       Br697   1.932       .  S
Br698      C2131   1.932       .  S
C701        C702   1.412       .  A
C701        C706   1.396       .  A
C701       Br708   1.932       .  S
C702        C703   1.405       .  A
C703        C704   1.394       .  A
C703       Br710   1.915       .  S
C704        C705   1.406       .  A
C704       Br709   1.933       .  S
C705        C706   1.405       .  A
C706       Br707   1.922       .  S
C711        C712   1.400       .  A
C711        C716   1.390       .  A
C711       Br718   1.933       .  S
C712       C1451   1.425       .  S
C712        C713   1.405       .  A
C713        C714   1.391       .  A
C713      Br2160   1.932       .  S
C714        C715   1.401       .  A
C714       Br719   1.930       .  S
C715        C716   1.406       .  A
C716      Br1437   1.930   1_545  S
Br717      C1436   1.930       .  S
Br720      C2153   1.932       .  S
C721       C1110   1.476       .  S
N722        C723   1.374       .  A
C723        C948   1.468       .  S
C723        N724   1.343       .  A
N724        C725   1.341       .  A
C725       C1435   1.432       .  S
C725        N726   1.344       .  A
C727       C1141   1.478       .  S
C727        N728   1.377       .  A
C727        N732   1.350       .  A
N728        C729   1.378       .  A
C729       C1218   1.470       .  S
C729        N730   1.338       .  A
N730        C731   1.339       .  A
C731       C2872   1.425   1_455  S
C731        N732   1.343       .  A
C733        N734   1.375       .  A
C733        N738   1.359       .  A
N734        C735   1.372       .  A
C735       C1146   1.470       .  S
C735        N736   1.339       .  A
N736        C737   1.342       .  A
C737       C1422   1.472       .  S
C737        N738   1.352       .  A
C739        C986   1.484       .  S
C739        N740   1.377       .  A
C739        N744   1.355       .  A
N740        C741   1.375       .  A
C741       C1002   1.472       .  S
C741        N742   1.336       .  A
N742        C743   1.345       .  A
C743       C1425   1.462       .  S
C743        N744   1.349       .  A
C745       C1255   1.493       .  S
C745        N746   1.359       .  A
C745        N750   1.377       .  A
N746        C747   1.353       .  A
C747       C1412   1.448       .  S
C747        N748   1.338       .  A
N748        C749   1.340       .  A
C749       C1056   1.469       .  S
C749        N750   1.377       .  A
C751       C1221   1.496       .  S
C751        N752   1.377       .  A
C751        N756   1.359       .  A
N752        C753   1.379       .  A
C753       C1144   1.471       .  S
C753        N754   1.341       .  A
N754        C755   1.340       .  A
C755       C1415   1.449       .  S
C755        N756   1.353       .  A
C757       C1005   1.489       .  S
C757        N758   1.358       .  A
C757        N762   1.377   1_554  A
N758        C759   1.350       .  A
C759       C1402   1.441       .  S
C759        N760   1.338   1_554  A
N760        C761   1.339       .  A
C761        C979   1.471       .  S
C761        N762   1.378       .  A
C763       C1039   1.486       .  S
C763        N764   1.374       .  A
C763        N768   1.358       .  A
N764        C765   1.375       .  A
C765       C1164   1.469       .  S
C765        N766   1.343       .  A
N766        C767   1.341       .  A
C767       C1405   1.446       .  S
C767        N768   1.351       .  A
C769       C1058   1.492       .  S
C769        N770   1.359       .  A
C769        N774   1.377       .  A
N770       C2211   1.352       .  A
C771       C1392   1.445       .  S
C771       N2210   1.352   1_455  A
C771        N772   1.339       .  A
N772       C2213   1.342   1_455  A
C773       C2689   1.470       .  S
C773       N2212   1.342       .  A
C773        N774   1.377       .  A
C775        N776   1.358       .  A
C775        N780   1.373       .  A
N776        C777   1.350       .  A
C777       C1395   1.443       .  S
C777        N778   1.340       .  A
N778        C779   1.342       .  A
C779       C1195   1.464       .  S
C779        N780   1.376       .  A
C781       C1166   1.480       .  S
C781        N782   1.357       .  A
C781        N786   1.374       .  A
N782        C783   1.347       .  A
C783       C1385   1.438       .  S
C783        N784   1.337       .  A
N784        C785   1.340       .  A
C785       C1033   1.461       .  S
C785        N786   1.374       .  A
C787        N788   1.361       .  A
C787        N792   1.376       .  A
N788        C789   1.353       .  A
C789       C1382   1.443       .  S
C789        N790   1.339       .  A
N790        C791   1.338       .  A
C791       C1087   1.467       .  S
C791        N792   1.377       .  A
C793       C2420   1.490       .  S
C793        N794   1.359       .  A
C793        N798   1.378       .  A
N794        C795   1.352       .  A
C795       C1372   1.475       .  S
C795        N796   1.344       .  A
N796        C797   1.340       .  A
C797       C1142   1.478       .  S
C797        N798   1.375       .  A
C799        C949   1.495       .  S
C799        N800   1.377       .  A
C799        N804   1.360       .  A
N800        C801   1.376       .  A
N802        C803   1.343       .  A
C803       C1375   1.474       .  S
C805       C1112   1.491       .  S
C805        N806   1.374       .  A
C805        N810   1.359       .  A
N806        C807   1.376       .  A
C807       C1254   1.468       .  S
C807        N808   1.341       .  A
N808        C809   1.341       .  A
C809       C1362   1.443       .  S
C809        N810   1.352       .  A
C811       C1148   1.484       .  S
C811       N2252   1.357   1_455  A
C811       N2256   1.376   1_455  A
N812       C2251   1.357       .  A
N812        C813   1.348       .  A
C813       C1365   1.439       .  S
C813        N814   1.337       .  A
N814        C815   1.340       .  A
C815        C983   1.465       .  S
C815        N816   1.376       .  A
N816       C2251   1.376       .  A
C817       C1219   1.490       .  S
C817        N818   1.375       .  A
C817        N822   1.359       .  A
N818        C819   1.375       .  A
C819       C1059   1.468       .  S
C819        N820   1.342       .  A
N820        C821   1.340       .  A
C821       C1355   1.447       .  S
C821        N822   1.352       .  A
C823       C1250   1.487       .  S
C823        N824   1.359       .  A
C823        N828   1.372       .  A
N824        C825   1.351       .  A
C825       C1352   1.448       .  S
C825        N826   1.343       .  A
N826        C827   1.344       .  A
C827       C1111   1.468       .  S
C827        N828   1.374       .  A
C829       C1035   1.490       .  S
C829        N830   1.358       .  A
C829        N834   1.376   1_554  A
N830        C831   1.350       .  A
C831       C1342   1.441       .  S
C831        N832   1.339   1_554  A
N832        C833   1.340       .  A
C833        C981   1.470       .  S
C833        N834   1.378       .  A
C835       C1037   1.483       .  S
C835        N836   1.357       .  A
C835        N840   1.375       .  A
N836        C837   1.349       .  A
C837       C1345   1.438       .  S
C837        N838   1.335       .  A
N838        C839   1.338       .  A
C839       C1199   1.460       .  S
C839        N840   1.375       .  A
C841       C1090   1.490       .  S
C841        N842   1.377       .  A
C841        N846   1.359       .  A
N842        C843   1.377       .  A
C843       C1252   1.473       .  S
C843        N844   1.343       .  A
N844        C845   1.340       .  A
C845       C1335   1.447       .  S
C845        N846   1.350       .  A
C847       C2532   1.496   1_455  S
C847        N848   1.358       .  A
C847        N852   1.377       .  A
N848        C849   1.353       .  A
C849       C1332   1.449       .  S
C849        N850   1.342       .  A
N850        C851   1.342       .  A
C851       C1197   1.474       .  S
C851        N852   1.379       .  A
C853       C1165   1.489       .  S
C853       N2294   1.356   1_455  A
C853       N2298   1.378   1_455  A
N854       C2293   1.356       .  A
N854        C855   1.348       .  A
C855       C1325   1.441       .  S
C855        N856   1.343       .  A
N856        C857   1.343       .  A
C857       C1093   1.478       .  S
C857        N858   1.379       .  A
N858       C2293   1.378       .  A
C859       C1196   1.488       .  S
C859        N860   1.377       .  A
C859        N864   1.359       .  A
N860        C861   1.377       .  A
C861       C1040   1.474       .  S
C861        N862   1.343       .  A
N862        C863   1.340       .  A
C863        N864   1.349       .  A
C865       C1057   1.489       .  S
C865        N866   1.358       .  A
C865        N870   1.373       .  A
N866        C867   1.352       .  A
C867       C1312   1.447       .  S
C867        N868   1.343       .  A
N868        C869   1.343       .  A
C869       C1201   1.467       .  S
C869        N870   1.375       .  A
C871       C1088   1.491       .  S
C871        N872   1.359       .  A
C871        N876   1.379       .  A
C873       C1315   1.444       .  S
C873        N874   1.337       .  A
C875        N876   1.378       .  A
C877       C1143   1.496       .  S
C877        N878   1.359       .  A
C877        N882   1.377       .  A
N878        C879   1.354       .  A
C879       C1302   1.475       .  S
C879        N880   1.344       .  A
N880        C881   1.341       .  A
C881        C951   1.474       .  S
C881        N882   1.376       .  A
C883       C1145   1.502       .  S
C883        N884   1.377       .  A
C883        N888   1.360       .  A
N884        C885   1.378       .  A
C885       C1220   1.479       .  S
C885        N886   1.341       .  A
N886        C887   1.345       .  A
C887        N888   1.357       .  A
C889       C1253   1.496       .  S
C889        N890   1.358       .  A
C889        N894   1.379       .  A
N890        C891   1.352       .  A
C891       C1292   1.445       .  S
C891        N892   1.338       .  A
N892        C893   1.341       .  A
C893       C1091   1.474       .  S
C893        N894   1.379       .  A
C895       C1251   1.492       .  S
C895        N896   1.355       .  A
C895        N900   1.378       .  A
N896        C897   1.350       .  A
C897       C1295   1.440       .  S
C897        N898   1.341       .  A
N898        C899   1.340       .  A
C899       C1113   1.473       .  S
C899        N900   1.380       .  A
C901       C1200   1.487       .  S
C901        N902   1.361       .  A
C901        N906   1.373       .  A
N902        C903   1.352       .  A
C903       C1285   1.446       .  S
C903        N904   1.339       .  A
N904        C905   1.341       .  A
C905       C1089   1.465       .  S
C905        N906   1.375       .  A
C907       C1198   1.488       .  S
C907        N908   1.374       .  A
C907        N912   1.360       .  A
N908        C909   1.375       .  A
C909       C1036   1.466       .  S
C909        N910   1.342       .  A
N910        C911   1.339       .  A
C911       C2722   1.447   1_455  S
C911        N912   1.352       .  A
C913       C1034   1.490       .  S
C913        N914   1.371   1_554  A
C913        N918   1.362       .  A
N914        C915   1.373       .  A
C915        C985   1.460       .  S
C915        N916   1.340       .  A
N916        C917   1.339   1_556  A
C917       C1275   1.447       .  S
C917        N918   1.354       .  A
C919       C1003   1.484       .  S
C919        N920   1.359       .  A
C919        N924   1.374       .  A
N920        C921   1.350       .  A
C921       C1272   1.442       .  S
C921        N922   1.337       .  A
N922        C923   1.340       .  A
C923       C1167   1.461       .  S
C923        N924   1.375       .  A
C925        C982   1.477       .  S
C925        N926   1.376       .  A
C925        N930   1.354       .  A
N926        C927   1.375       .  A
C927       C1147   1.466       .  S
C927        N928   1.341       .  A
N928        C929   1.338       .  A
C929       C1262   1.433       .  S
C929        N930   1.345       .  A
C931        C984   1.477       .  S
C931        N932   1.356       .  A
C931        N936   1.372       .  A
N932       C2373   1.349       .  A
C933       C1265   1.432       .  S
C933       N2372   1.349   1_455  A
C933        N934   1.337       .  A
N934       C2375   1.338   1_455  A
C935       C2478   1.456       .  S
C935       N2374   1.338       .  A
C935        N936   1.371       .  A
O937        C948   1.305       .  A
O937       Eu973   2.522       .  S
O938        C949   1.295       .  A
O938       Eu972   2.494       .  S
O939        C950   1.292       .  A
O939       Eu945   2.486       .  S
O940        C951   1.310       .  A
O940       Eu945   2.545       .  S
O941        C951   1.281       .  A
O941       Eu975   2.402       .  S
O942        C950   1.295       .  A
O942       Eu974   2.470       .  S
O943        C949   1.302       .  A
O943       Eu945   2.506       .  S
O944        C948   1.283       .  A
O944       Eu945   2.410       .  S
Eu945       O955   2.367       .  S
Eu945       O947   2.365       .  S
Eu945       O946   2.321       .  S
Eu945       O953   2.359       .  S
O946       Eu975   2.365       .  S
O946       Eu972   2.342       .  S
O947       Eu973   2.324       .  S
O947       Eu974   2.340       .  S
H952        O953   0.961       .  S
O953       Eu974   2.319       .  S
O953       Eu972   2.378       .  S
H954        O955   0.963       .  S
O955       Eu973   2.361       .  S
O955       Eu975   2.358       .  S
O956        C979   1.311       .  A
O956       Eu972   2.552       .  S
O957        C980   1.291       .  A
O957       Eu973   2.478       .  S
O958        C981   1.310       .  A
O958       Eu974   2.545       .  S
O959        C982   1.288       .  A
O959       Eu975   2.464       .  S
O960        C983   1.306       .  A
O960       Eu975   2.523       .  S
O961        C984   1.292       .  A
O961       Eu974   2.478       .  S
O962        C985   1.307       .  A
O962       Eu976   2.533       .  S
O963        C986   1.290       .  A
O963       Eu976   2.470       .  S
O964        C985   1.276       .  A
O964       Eu974   2.375       .  S
O965        C986   1.299       .  A
O965       Eu975   2.490       .  S
O966        C981   1.278       .  A
O966       Eu972   2.387       .  S
O967        C984   1.294       .  A
O967       Eu973   2.466       .  S
O968        C983   1.278       .  A
O968       Eu973   2.395       .  S
O969        C982   1.296       .  A
O969       Eu972   2.473       .  S
O970        C979   1.278       .  A
O970       Eu976   2.387       .  S
O971        C980   1.299       .  A
O971       Eu976   2.491       .  S
Eu972       O990   2.320       .  S
Eu972       O978   2.350       .  S
Eu973       O977   2.368       .  S
Eu973       O988   2.358       .  S
Eu974       O988   2.379       .  S
Eu974       O978   2.348       .  S
Eu975       O977   2.324       .  S
Eu975       O990   2.352       .  S
Eu976       O977   2.347       .  S
Eu976       O988   2.313       .  S
Eu976       O990   2.378       .  S
Eu976       O978   2.355       .  S
C980       C2233   1.490       .  S
H987        O988   0.963       .  S
H989        O990   0.960       .  S
O991       C1002   1.312       .  A
O991      Eu1027   2.557       .  S
O992       C1003   1.292       .  A
O992      Eu1026   2.483   1_565  S
O993       C1004   1.311   1_565  A
O993       Eu999   2.551       .  S
O994       C1005   1.292   1_556  A
O994      Eu2439   2.480       .  S
O995       C1005   1.301       .  A
O995      Eu1029   2.497       .  S
O996      Eu1028   2.393       .  S
O997       C1003   1.295       .  A
O997       Eu999   2.470   1_554  S
O998       C1002   1.278       .  A
O998      Eu2439   2.388       .  S
Eu999      O2434   2.480   1_455  S
Eu999      O2438   2.388   1_455  S
Eu999      O2449   2.374   1_456  S
Eu999      O1001   2.356       .  S
Eu999      O1000   2.345   1_556  S
Eu999      O1007   2.313   1_556  S
O1000     Eu2469   2.324   1_455  S
O1000     Eu1026   2.369   1_565  S
O1001     Eu2467   2.364   1_455  S
H1006      O1007   0.962   1_556  S
O1007     Eu1026   2.349   1_565  S
H1008      O1009   0.964   1_556  S
O1009     Eu2439   2.374   1_554  S
O1009     Eu1027   2.322   1_554  S
O1009     Eu1029   2.352       .  S
O1010      C1033   1.306       .  A
O1011      C1034   1.298   1_556  A
O1012      C1035   1.293   1_556  A
O1012     Eu1028   2.491       .  S
O1013      C2476   1.307       .  A
O1013     Eu1029   2.529       .  S
O1014      C1037   1.291       .  A
O1014     Eu1029   2.476       .  S
O1015      C1038   1.305       .  A
O1015     Eu1028   2.520       .  S
O1016      C1039   1.293       .  A
O1016     Eu1030   2.487       .  S
O1017     Eu2470   2.528       .  S
O1018      C1039   1.296       .  A
O1018     Eu1028   2.474   1_554  S
O1019      C1040   1.281       .  A
O1019     Eu1029   2.411       .  S
O1020      C1035   1.299       .  A
O1021      C2478   1.278       .  A
O1022      C1037   1.297       .  A
O1022     Eu1027   2.477   1_554  S
O1023      C1036   1.280       .  A
O1023     Eu1026   2.396   1_565  S
O1024      C1033   1.278       .  A
O1024     Eu1030   2.385       .  S
O1025      C1034   1.294       .  A
O1025     Eu2470   2.467       .  S
Eu1026     O1044   2.366   1_545  S
Eu1027     O2441   2.364       .  S
Eu1027     O1031   2.344   1_556  S
Eu1027     O1762   2.379   1_566  S
Eu1028     O1042   2.331   1_556  S
Eu1028     O1032   2.342   1_556  S
Eu1029     O2440   2.324       .  S
Eu1029     O1031   2.372       .  S
Eu1029     O2484   2.363       .  S
Eu1030     O2457   2.528   1_455  S
Eu1030     O2465   2.467   1_455  S
Eu1030     O1751   2.326   1_455  S
Eu1030     O1042   2.353       .  S
Eu1030     O1032   2.371       .  S
O1031     Eu1750   2.326   1_565  S
C1036      O2453   1.307       .  A
C1038      C2375   1.456   1_455  S
C1038      O2461   1.278   1_455  A
H1041      O1042   0.966   1_556  S
O1042     Eu1747   2.379   1_454  S
H1043      O1044   0.967       .  S
O1044     Eu2469   2.363   1_455  S
O1045      C1056   1.308       .  A
O1045     Eu1081   2.536       .  S
O1046      C1057   1.295       .  A
O1046     Eu1080   2.497       .  S
O1047      C1058   1.294       .  A
O1047     Eu1053   2.493       .  S
O1048      C1059   1.308       .  A
O1048     Eu1053   2.537       .  S
O1049      C1059   1.279       .  A
O1049     Eu1083   2.396       .  S
O1050      C1058   1.297       .  A
O1050     Eu1082   2.482       .  S
O1051      C1057   1.297       .  A
O1051     Eu1053   2.482       .  S
O1052      C1056   1.279       .  A
O1052     Eu1053   2.397       .  S
Eu1053     O1063   2.364       .  S
Eu1053     O1055   2.371       .  S
Eu1053     O1054   2.331       .  S
Eu1053     O1061   2.360       .  S
O1054     Eu1083   2.369       .  S
O1054     Eu1080   2.345       .  S
O1055     Eu1081   2.327       .  S
O1055     Eu1082   2.346       .  S
H1060      O1061   0.964       .  S
O1061     Eu1082   2.334       .  S
O1061     Eu1080   2.383       .  S
H1062      O1063   0.962       .  S
O1063     Eu1081   2.365       .  S
O1063     Eu1083   2.364       .  S
O1064      C1087   1.311       .  A
O1064     Eu1080   2.552       .  S
O1065      C1088   1.291       .  A
O1065     Eu1081   2.481       .  S
O1066      C1089   1.309       .  A
O1066     Eu1082   2.540       .  S
O1067      C1090   1.292       .  A
O1067     Eu1083   2.486       .  S
O1068      C1091   1.308       .  A
O1068     Eu1083   2.531       .  S
O1069      C1092   1.295       .  A
O1069     Eu1082   2.499       .  S
O1070      C1093   1.312       .  A
O1070     Eu1084   2.561       .  S
O1071      C1094   1.295       .  A
O1071     Eu1084   2.496       .  S
O1072      C1093   1.279       .  A
O1072     Eu1082   2.395       .  S
O1073      C1094   1.297       .  A
O1073     Eu1083   2.480       .  S
O1074      C1089   1.278       .  A
O1074     Eu1080   2.385       .  S
O1075      C1092   1.300       .  A
O1075     Eu1081   2.496       .  S
O1076      C1091   1.282       .  A
O1076     Eu1081   2.413       .  S
O1077      C1090   1.298       .  A
O1077     Eu1080   2.486       .  S
O1078      C1087   1.277       .  A
O1078     Eu1084   2.382       .  S
O1079      C1088   1.300       .  A
O1079     Eu1084   2.494       .  S
Eu1080     O1098   2.320       .  S
Eu1080     O1086   2.358       .  S
Eu1081     O1085   2.366       .  S
Eu1081     O1096   2.363       .  S
Eu1082     O1096   2.380       .  S
Eu1082     O1086   2.355       .  S
Eu1083     O1085   2.323       .  S
Eu1083     O1098   2.354       .  S
Eu1084     O1085   2.339       .  S
Eu1084     O1096   2.326       .  S
Eu1084     O1098   2.385       .  S
Eu1084     O1086   2.355       .  S
C1092      C2287   1.496       .  S
H1095      O1096   0.962       .  S
H1097      O1098   0.965       .  S
O1099      C1110   1.289       .  A
O1099     Eu1135   2.467       .  S
O1100      C1111   1.306       .  A
O1100     Eu1134   2.532       .  S
O1101      C1112   1.296       .  A
O1101     Eu1107   2.503       .  S
O1102      C1113   1.314       .  A
O1102     Eu1107   2.570       .  S
O1103      C1113   1.276       .  A
O1103     Eu1137   2.373       .  S
O1104      C1112   1.298       .  A
O1104     Eu1136   2.484       .  S
O1105      C1111   1.279       .  A
O1105     Eu1107   2.393       .  S
O1106      C1110   1.296       .  A
O1106     Eu1107   2.470       .  S
Eu1107     O1117   2.333       .  S
Eu1107     O1109   2.343       .  S
Eu1107     O1108   2.341       .  S
Eu1107     O1115   2.380       .  S
O1108     Eu1137   2.358       .  S
O1108     Eu1134   2.353       .  S
O1109     Eu1135   2.363       .  S
O1109     Eu1136   2.321       .  S
H1114      O1115   0.962       .  S
O1115     Eu1136   2.364       .  S
O1115     Eu1134   2.312       .  S
H1116      O1117   0.962       .  S
O1117     Eu1135   2.367       .  S
O1117     Eu1137   2.377       .  S
O1118      C1141   1.288       .  A
O1118     Eu1134   2.460       .  S
O1119      C1142   1.309       .  A
O1119     Eu1135   2.542       .  S
O1120      C1143   1.292       .  A
O1120     Eu1136   2.486       .  S
O1121      C1144   1.311       .  A
O1121     Eu1137   2.553       .  S
O1122      C1145   1.296       .  A
O1122     Eu1137   2.506       .  S
O1123      C1146   1.306       .  A
O1123     Eu1136   2.527       .  S
O1124      C1147   1.304       .  A
O1124     Eu1138   2.513       .  S
O1125      C1148   1.291       .  A
O1125     Eu1138   2.475       .  S
O1126      C1147   1.281       .  A
O1126     Eu1136   2.408       .  S
O1127      C1148   1.297       .  A
O1127     Eu1137   2.478       .  S
O1128      C1143   1.300       .  A
O1128     Eu1134   2.498       .  S
O1129      C1146   1.283       .  A
O1129     Eu1135   2.412       .  S
O1130      C1145   1.302       .  A
O1130     Eu1135   2.507       .  S
O1131      C1144   1.278       .  A
O1131     Eu1134   2.387       .  S
O1132      C1141   1.298       .  A
O1132     Eu1138   2.482       .  S
O1133      C1142   1.282       .  A
O1133     Eu1138   2.413       .  S
Eu1134     O1152   2.383       .  S
Eu1134     O1140   2.348       .  S
Eu1135     O1139   2.320       .  S
Eu1135     O1150   2.369       .  S
Eu1136     O1150   2.373       .  S
Eu1136     O1140   2.369       .  S
Eu1137     O1139   2.342       .  S
Eu1137     O1152   2.315       .  S
Eu1138     O1139   2.367       .  S
Eu1138     O1150   2.362       .  S
Eu1138     O1152   2.349       .  S
Eu1138     O1140   2.336       .  S
H1149      O1150   0.973       .  S
H1151      O1152   0.960       .  S
O1153      C1164   1.306       .  A
O1153     Eu1189   2.528       .  S
O1154      C1165   1.292       .  A
O1154     Eu1188   2.483       .  S
O1155      C1166   1.291       .  A
O1155     Eu1161   2.476       .  S
O1156      C1167   1.307       .  A
O1156     Eu1161   2.527       .  S
O1157      C1167   1.278       .  A
O1157     Eu1191   2.387       .  S
O1158      C1166   1.296       .  A
O1158     Eu1190   2.471       .  S
O1159      C1165   1.300       .  A
O1159     Eu1161   2.490       .  S
O1160      C1164   1.281       .  A
O1160     Eu1161   2.407       .  S
Eu1161     O1171   2.363       .  S
Eu1161     O1163   2.371       .  S
Eu1161     O1162   2.324       .  S
Eu1161     O1169   2.356       .  S
O1162     Eu1191   2.368       .  S
O1162     Eu1188   2.341       .  S
O1163     Eu1189   2.327       .  S
O1163     Eu1190   2.345       .  S
H1168      O1169   0.965       .  S
O1169     Eu1190   2.325       .  S
O1169     Eu1188   2.375       .  S
H1170      O1171   0.962       .  S
O1171     Eu1189   2.364       .  S
O1171     Eu1191   2.365       .  S
O1172      C1195   1.308       .  A
O1172     Eu1188   2.536       .  S
O1173      C1196   1.293       .  A
O1173     Eu1189   2.490       .  S
O1174      C1197   1.311       .  A
O1174     Eu1190   2.556       .  S
O1175      C1198   1.294       .  A
O1175     Eu1191   2.491       .  S
O1176      C1199   1.308       .  A
O1176     Eu1191   2.534       .  S
O1177      C1200   1.296       .  A
O1177     Eu1190   2.505       .  S
O1178      C1201   1.310       .  A
O1178     Eu1192   2.548       .  S
O1179      C1202   1.297       .  A
O1179     Eu1192   2.508       .  S
O1180      C1201   1.278       .  A
O1180     Eu1190   2.381       .  S
O1181      C1202   1.297       .  A
O1181     Eu1191   2.484       .  S
O1182      C1197   1.277       .  A
O1182     Eu1188   2.385       .  S
O1183      C1200   1.295       .  A
O1183     Eu1189   2.468       .  S
O1184      C1199   1.277       .  A
O1184     Eu1189   2.382       .  S
O1185      C1198   1.295       .  A
O1185     Eu1188   2.472       .  S
O1186      C1195   1.277       .  A
O1186     Eu1192   2.381       .  S
O1187      C1196   1.297       .  A
O1187     Eu1192   2.479       .  S
Eu1188     O1206   2.319       .  S
Eu1188     O1194   2.350       .  S
Eu1189     O1193   2.368       .  S
Eu1189     O1204   2.359       .  S
Eu1190     O1204   2.382       .  S
Eu1190     O1194   2.351       .  S
Eu1191     O1193   2.323       .  S
Eu1191     O1206   2.350       .  S
Eu1192     O1193   2.341       .  S
Eu1192     O1204   2.331       .  S
Eu1192     O1206   2.376       .  S
Eu1192     O1194   2.354       .  S
H1203      O1204   0.961       .  S
H1205      O1206   0.963       .  S
O1207      C2658   1.312       .  A
O1208      C1219   1.293       .  A
O1209     Eu1215   2.556       .  S
O1210      C1221   1.295       .  A
O1210     Eu1215   2.502       .  S
O1211      C1221   1.300       .  A
O1211     Eu1245   2.497       .  S
O1212      C1220   1.279       .  A
O1212     Eu1244   2.401       .  S
O1213      C1219   1.298       .  A
O1213     Eu1215   2.484       .  S
O1214      C1218   1.278       .  A
O1214     Eu1215   2.388       .  S
Eu1215     O1225   2.384       .  S
Eu1215     O1216   2.347       .  S
O1216     Eu1245   2.334       .  S
O1217     Eu2683   2.362   1_455  S
O1217     Eu1244   2.358       .  S
C1218      O2647   1.312       .  A
H1222      O1223   0.963       .  S
O1223     Eu1244   2.381       .  S
O1223     Eu1242   2.361       .  S
H1224      O1225   0.964       .  S
O1225     Eu1963   2.325   1_455  S
O1225     Eu1245   2.354       .  S
O1226      C1249   1.308   1_455  A
O1226     Eu1242   2.536       .  S
O1227      C1250   1.295       .  A
O1227     Eu1243   2.499       .  S
O1228      C1251   1.292       .  A
O1228     Eu1244   2.482       .  S
O1229      C1252   1.307       .  A
O1229     Eu1245   2.528       .  S
O1230      C1253   1.293       .  A
O1230     Eu2685   2.490       .  S
O1231      C1254   1.309       .  A
O1231     Eu2684   2.542       .  S
O1232      C1255   1.292       .  A
O1232     Eu1246   2.483       .  S
O1233      C1256   1.308   1_565  A
O1233     Eu1246   2.533       .  S
O1234      C1255   1.300       .  A
O1234     Eu2684   2.494       .  S
O1235     Eu2685   2.407       .  S
O1236      C1251   1.302       .  A
O1236     Eu1242   2.504       .  S
O1237      C1254   1.278       .  A
O1237     Eu1243   2.389       .  S
O1238      C1253   1.300       .  A
O1239      C1252   1.282       .  A
O1240      C2689   1.279       .  A
O1240     Eu1246   2.399       .  S
O1241      C1250   1.296       .  A
O1241     Eu1246   2.474       .  S
Eu1242     O1260   2.367       .  S
Eu1242     O1248   2.330       .  S
Eu1243     O2657   2.362       .  S
Eu1243     O1945   2.325   1_565  S
Eu1243     O1247   2.339       .  S
Eu1243     O1258   2.382       .  S
Eu1244     O2671   2.542   1_455  S
Eu1244     O2674   2.494   1_455  S
Eu1244     O2698   2.325   1_455  S
Eu1244     O1248   2.348       .  S
Eu1245     O2670   2.490   1_455  S
Eu1245     O2675   2.407   1_455  S
Eu1245     O1967   2.367   1_455  S
Eu1246     O1247   2.324       .  S
Eu1246     O1258   2.359       .  S
Eu1246     O2700   2.363       .  S
Eu1246     O2688   2.370       .  S
O1247     Eu1965   2.367   1_565  S
O1248     Eu2686   2.370   1_455  S
C1249      C2213   1.470       .  S
C1249      O2680   1.279       .  A
H1257      O1258   0.963       .  S
O1258     Eu2684   2.325       .  S
H1259      O1260   0.963       .  S
O1260     Eu2686   2.363   1_455  S
C1261      C1262   1.405       .  A
C1261      C1266   1.394       .  A
C1261     Br1268   1.930       .  S
C1262      C1263   1.402       .  A
C1263      C1264   1.391       .  A
C1263     Br1270   1.933       .  S
C1264      C1265   1.406       .  A
C1264     Br1269   1.934       .  S
C1265      C1266   1.403       .  A
C1266     Br1267   1.933       .  S
C1271      C1272   1.403       .  A
C1271      C1276   1.397       .  A
C1271     Br1278   1.931       .  S
C1272      C1273   1.407       .  A
C1273      C2714   1.396   1_455  A
C1273     Br1280   1.935   1_455  S
C1274      C2713   1.396       .  A
C1274      C1275   1.406       .  A
C1274     Br1279   1.929       .  S
C1275      C2716   1.409       .  A
C1276      C2715   1.409   1_455  A
C1276     Br1277   1.932   1_554  S
C1281      C1282   1.405       .  A
C1281      C1286   1.400       .  A
C1281     Br1288   1.930       .  S
C1282      C2351   1.447       .  S
C1282      C1283   1.408       .  A
C1283      C1284   1.396       .  A
C1283     Br1290   1.933       .  S
C1284      C1285   1.403       .  A
C1284     Br1289   1.930       .  S
C1285      C1286   1.407       .  A
C1286     Br1287   1.932       .  S
C1291      C1296   1.396       .  A
C1291     Br1298   1.930       .  S
C1292      C1293   1.407       .  A
C1293     Br1300   1.933       .  S
C1294      C1295   1.407       .  A
C1294     Br1299   1.934   1_565  S
C1295      C1296   1.402       .  A
C1296     Br1297   1.931       .  S
C1301      C1302   1.408       .  A
C1301      C1306   1.401       .  A
C1301     Br1308   1.936       .  S
C1302      C1303   1.405       .  A
C1303      C1304   1.398       .  A
C1303     Br1310   1.907       .  S
C1304      C1305   1.407       .  A
C1304     Br1309   1.932       .  S
C1305      C1306   1.409       .  A
C1306     Br1307   1.904       .  S
C1311      C1312   1.404       .  A
C1311      C1316   1.398       .  A
C1311     Br1318   1.922       .  S
C1312      C1313   1.407       .  A
C1313      C1314   1.395       .  A
C1313     Br1320   1.932       .  S
C1314      C1315   1.406       .  A
C1314     Br1319   1.934       .  S
C1315      C1316   1.405       .  A
C1316     Br1317   1.930       .  S
C1321      C1322   1.408       .  A
C1321      C1326   1.398       .  A
C1322      C1323   1.402       .  A
C1323      C1324   1.395       .  A
C1323     Br2770   1.930       .  S
C1324      C1325   1.406       .  A
C1324     Br2769   1.932       .  S
C1325      C1326   1.401       .  A
C1326     Br1327   1.928       .  S
Br1329     C2764   1.932   1_455  S
Br1330     C2763   1.930       .  S
C1331      C1332   1.405       .  A
C1331      C1336   1.398       .  A
C1331     Br1338   1.924       .  S
C1332      C1333   1.408       .  A
C1333      C1334   1.396       .  A
C1333     Br1340   1.932       .  S
C1334      C1335   1.403       .  A
C1334     Br1339   1.931       .  S
C1335      C1336   1.406       .  A
C1336     Br1337   1.931       .  S
C1341      C1342   1.405       .  A
C1341     Br1348   1.932       .  S
C1343      C1344   1.396       .  A
C1343     Br1350   1.930   1_554  S
C1344      C1345   1.404       .  A
C1344     Br1349   1.931       .  S
C1345      C1346   1.406       .  A
C1351      C1352   1.408       .  A
C1351      C1356   1.399       .  A
C1351     Br1358   1.932       .  S
C1352      C1353   1.402       .  A
C1353      C1354   1.397       .  A
C1353     Br1360   1.929       .  S
C1354      C1355   1.409       .  A
C1354     Br1359   1.935       .  S
C1355      C1356   1.406       .  A
C1356     Br1357   1.931       .  S
C1361      C1362   1.404       .  A
C1361      C1366   1.397       .  A
C1361     Br2808   1.930       .  S
C1362      C1363   1.408       .  A
C1363      C1364   1.395       .  A
C1363     Br1370   1.932       .  S
C1364      C1365   1.402       .  A
C1364     Br1369   1.933       .  S
C1365      C1366   1.406       .  A
C1366     Br2807   1.933       .  S
Br1367     C2806   1.933   1_455  S
Br1368     C2801   1.930   1_455  S
C1371      C1372   1.405       .  A
C1371      C1376   1.397       .  A
C1371     Br1378   1.918       .  S
C1372      C1373   1.410       .  A
C1373      C1374   1.398       .  A
C1373     Br1380   1.934       .  S
C1374      C1375   1.408       .  A
C1374     Br1379   1.918       .  S
C1375      C1376   1.411       .  A
C1376     Br1377   1.934       .  S
C1381      C1382   1.403       .  A
C1381      C1386   1.397       .  A
C1381     Br1388   1.929       .  S
C1382      C1383   1.410       .  A
C1383      C1384   1.395       .  A
C1384      C1385   1.399       .  A
C1384     Br1389   1.931       .  S
C1385      C1386   1.407       .  A
C1386     Br1387   1.933       .  S
C1391      C1392   1.405       .  A
C1391      C1396   1.398       .  A
C1391     Br1398   1.930       .  S
C1392      C1393   1.408       .  A
C1393      C1394   1.396       .  A
C1393     Br1400   1.933       .  S
C1394      C1395   1.402       .  A
C1394     Br1399   1.928       .  S
C1395      C1396   1.407       .  A
C1396     Br1397   1.933       .  S
C1401      C1402   1.403       .  A
C1401      C1406   1.394       .  A
C1401     Br1408   1.934       .  S
C1402      C1403   1.406       .  A
C1403      C1404   1.398       .  A
C1403     Br1410   1.931   1_554  S
C1404      C1405   1.406       .  A
C1404     Br1409   1.929       .  S
C1405      C1406   1.407       .  A
C1406     Br1407   1.931       .  S
C1411      C2852   1.407   1_455  A
C1411      C1416   1.397       .  A
C1411     Br2858   1.932       .  S
C1412      C2851   1.407       .  A
C1412      C2853   1.407       .  A
C1413      C2852   1.407       .  A
C1413      C1414   1.397   1_655  A
C1413     Br1420   1.934       .  S
C1414      C1415   1.407       .  A
C1414     Br1419   1.931   1_455  S
C1415      C1416   1.406       .  A
C1416     Br1417   1.932       .  S
Br1418     C2851   1.932       .  S
C1421      C1422   1.412       .  A
C1421      C1426   1.396       .  A
C1421     Br1428   1.932       .  S
C1422      C1423   1.405       .  A
C1423      C1424   1.394       .  A
C1423     Br1430   1.915       .  S
C1424      C1425   1.406       .  A
C1424     Br1429   1.933       .  S
C1425      C1426   1.405       .  A
C1426     Br1427   1.922       .  S
C1431      C1432   1.400       .  A
C1431      C1436   1.390       .  A
C1431     Br1438   1.933       .  S
C1432      C2171   1.425       .  S
C1432      C1433   1.405       .  A
C1433      C1434   1.391       .  A
C1433     Br2880   1.932       .  S
C1434      C1435   1.401       .  A
C1434     Br1439   1.930       .  S
C1435      C1436   1.406       .  A
Br1440     C2873   1.932       .  S
C1441      C1830   1.476       .  S
C1441      N2162   1.375       .  A
C1441      N2166   1.351       .  A
N1442      C2161   1.375   1_545  A
N1442      C1443   1.374       .  A
C1443      C1668   1.468       .  S
C1443      N1444   1.343       .  A
N1444      C1445   1.341       .  A
C1445      C2155   1.432       .  S
C1445      N1446   1.344       .  A
N1446      C2161   1.351   1_545  A
C1447      C1861   1.478       .  S
C1447      N1448   1.377       .  A
C1447      N1452   1.350       .  A
N1448      C1449   1.378       .  A
C1449      C1938   1.470       .  S
C1449      N1450   1.338       .  A
N1450      C1451   1.339       .  A
C1451      N1452   1.343       .  A
C1453      C2390   1.485       .  S
C1453      N1454   1.375       .  A
C1453      N1458   1.359       .  A
N1454      C1455   1.372       .  A
C1455      C1866   1.470       .  S
C1455      N1456   1.339       .  A
N1456      C1457   1.342       .  A
C1457      C2142   1.472       .  S
C1457      N1458   1.352       .  A
C1459      C1706   1.484       .  S
C1459      N1460   1.377       .  A
C1459      N1464   1.355       .  A
N1460      C1461   1.375       .  A
C1461      C1722   1.472       .  S
C1461      N1462   1.336       .  A
N1462      C1463   1.345       .  A
C1463      C2145   1.462       .  S
C1463      N1464   1.349       .  A
C1465      C1975   1.493       .  S
C1465      N1466   1.359       .  A
C1465      N1470   1.377       .  A
N1466      C1467   1.353       .  A
C1467      C2132   1.448       .  S
C1467      N1468   1.338       .  A
N1468      C1469   1.340       .  A
C1469      C1776   1.469       .  S
C1469      N1470   1.377       .  A
C1471      C1941   1.496       .  S
C1471      N1472   1.377       .  A
C1471      N1476   1.359       .  A
N1472      C1473   1.379       .  A
C1473      C1864   1.471       .  S
C1473      N1474   1.341       .  A
N1474      C1475   1.340       .  A
C1475      C2135   1.449       .  S
C1475      N1476   1.353       .  A
C1477      C1725   1.489       .  S
C1477      N1478   1.358       .  A
C1477      N1482   1.377   1_554  A
N1478      C1479   1.350       .  A
C1479      C2122   1.441       .  S
C1479      N1480   1.338   1_554  A
N1480      C1481   1.339       .  A
C1481      C1699   1.471       .  S
C1481      N1482   1.378       .  A
C1483      C1759   1.486       .  S
C1483      N1484   1.374       .  A
C1483      N1488   1.358       .  A
N1484      C1485   1.375       .  A
C1485      C1884   1.469       .  S
C1485      N1486   1.343       .  A
N1486      C1487   1.341       .  A
C1487      C2125   1.446       .  S
C1487      N1488   1.351       .  A
C1489      C1778   1.492       .  S
C1489      N1490   1.359       .  A
C1489      N1494   1.377       .  A
C1491      C2112   1.445       .  S
C1491      N1492   1.339       .  A
C1493      N1494   1.377       .  A
C1495      C2534   1.487       .  S
C1495      N1496   1.358       .  A
C1495      N1500   1.373       .  A
N1496      C1497   1.350       .  A
C1497      C2115   1.443       .  S
C1497      N1498   1.340       .  A
N1498      C1499   1.342       .  A
C1499      C1915   1.464       .  S
C1499      N1500   1.376       .  A
C1501      C1886   1.480       .  S
C1501      N1502   1.357       .  A
C1501      N1506   1.374       .  A
N1502      C1503   1.347       .  A
C1503      C2105   1.438       .  S
C1503      N1504   1.337       .  A
N1504      C1505   1.340       .  A
C1505      C1753   1.461       .  S
C1505      N1506   1.374       .  A
C1507      C2642   1.494   1_545  S
C1507      N1508   1.361       .  A
C1507      N1512   1.376       .  A
N1508      C1509   1.353       .  A
C1509      C2102   1.443       .  S
C1509      N1510   1.339       .  A
N1510      C1511   1.338       .  A
C1511      C1807   1.467       .  S
C1511      N1512   1.377       .  A
C1513      N1514   1.359       .  A
C1513      N1518   1.378       .  A
N1514      C1515   1.352       .  A
C1515      C2092   1.475       .  S
C1515      N1516   1.344       .  A
N1516      C1517   1.340       .  A
C1517      C1862   1.478       .  S
C1517      N1518   1.375       .  A
C1519      C1669   1.495       .  S
C1519      N1520   1.377       .  A
C1519      N1524   1.360       .  A
N1520      C1521   1.376       .  A
C1521      C2444   1.474       .  S
C1521      N2242   1.337   1_545  A
N1522      C2241   1.337       .  A
N1522      C1523   1.343       .  A
C1523      C2095   1.474       .  S
C1523      N2244   1.354       .  A
N1524      C2243   1.354   1_545  A
C1525      C1832   1.491       .  S
C1525      N1526   1.374       .  A
C1525      N1530   1.359       .  A
N1526      C1527   1.376       .  A
C1527      C1974   1.468       .  S
C1527      N1528   1.341       .  A
N1528      C1529   1.341       .  A
C1529      C2082   1.443       .  S
C1529      N1530   1.352       .  A
C1531      C1868   1.484       .  S
N1532      C1533   1.348       .  A
C1533      C2085   1.439       .  S
C1533      N1534   1.337       .  A
N1534      C1535   1.340       .  A
C1535      C1703   1.465       .  S
C1535      N1536   1.376       .  A
C1537      C1939   1.490       .  S
C1537      N1538   1.375       .  A
C1537      N1542   1.359       .  A
N1538      C1539   1.375       .  A
C1539      C1779   1.468       .  S
C1539      N1540   1.342       .  A
N1540      C1541   1.340       .  A
C1541      C2075   1.447       .  S
C1541      N1542   1.352       .  A
C1543      C1970   1.487       .  S
C1543      N1544   1.359       .  A
C1543      N1548   1.372       .  A
N1544      C1545   1.351       .  A
C1545      C2072   1.448       .  S
C1545      N1546   1.343       .  A
N1546      C1547   1.344       .  A
C1547      C1831   1.468       .  S
C1547      N1548   1.374       .  A
C1549      C1755   1.490       .  S
C1549      N1550   1.358       .  A
C1549      N1554   1.376   1_554  A
N1550      C1551   1.350       .  A
C1551      C2062   1.441       .  S
C1551      N1552   1.339   1_554  A
N1552      C1553   1.340       .  A
C1553      C1701   1.470       .  S
C1553      N1554   1.378       .  A
C1555      C1757   1.483       .  S
C1555      N1556   1.357       .  A
C1555      N1560   1.375       .  A
N1556      C1557   1.349       .  A
C1557      C2065   1.438       .  S
C1557      N1558   1.335       .  A
N1558      C1559   1.338       .  A
C1559      C1919   1.460       .  S
C1559      N1560   1.375       .  A
C1561      C1810   1.490       .  S
C1561      N1562   1.377       .  A
C1561      N1566   1.359       .  A
N1562      C1563   1.377       .  A
C1563      C1972   1.473       .  S
C1563      N1564   1.343       .  A
N1564      C1565   1.340       .  A
C1565      C2055   1.447       .  S
C1565      N1566   1.350       .  A
C1567      N1568   1.358       .  A
C1567      N1572   1.377       .  A
N1568      C1569   1.353       .  A
C1569      C2052   1.449       .  S
C1569      N1570   1.342       .  A
N1570      C1571   1.342       .  A
C1571      C1917   1.474       .  S
C1571      N1572   1.379       .  A
C1573      C1885   1.489       .  S
N1574      C1575   1.348       .  A
C1575      C2045   1.441       .  S
C1575      N1576   1.343       .  A
N1576      C1577   1.343       .  A
C1577      C1813   1.478       .  S
C1577      N1578   1.379       .  A
C1579      C1916   1.488       .  S
C1579      N1580   1.377       .  A
C1579      N1584   1.359       .  A
N1580      C1581   1.377       .  A
C1581      C1760   1.474       .  S
C1581      N1582   1.343       .  A
N1582      C1583   1.340       .  A
C1583      C2762   1.443       .  S
C1583      N1584   1.349       .  A
C1585      C1777   1.489       .  S
C1585      N1586   1.358       .  A
C1585      N1590   1.373       .  A
N1586      C1587   1.352       .  A
C1587      C2032   1.447       .  S
C1587      N1588   1.343       .  A
N1588      C1589   1.343       .  A
C1589      C1921   1.467       .  S
C1589      N1590   1.375       .  A
C1591      C1808   1.491       .  S
C1591      N1592   1.359       .  A
C1591      N1596   1.379       .  A
N1592      C2313   1.350   1_545  A
C1593      C2035   1.444       .  S
C1593      N2312   1.350       .  A
C1593      N1594   1.337       .  A
N1594      C2315   1.340       .  A
C1595      C2696   1.473       .  S
C1595      N2314   1.340   1_545  A
C1595      N1596   1.378       .  A
C1597      C1863   1.496       .  S
C1597      N1598   1.359       .  A
C1597      N1602   1.377       .  A
N1598      C1599   1.354       .  A
C1599      C2022   1.475       .  S
C1599      N1600   1.344       .  A
N1600      C1601   1.341       .  A
C1601      C1671   1.474       .  S
C1601      N1602   1.376       .  A
C1603      C1865   1.502       .  S
C1603      N1604   1.377       .  A
C1603      N1608   1.360       .  A
N1604      C1605   1.378       .  A
C1605      C1940   1.479       .  S
C1605      N1606   1.341       .  A
N1606      C1607   1.345       .  A
C1607      C2745   1.476       .  S
C1607      N1608   1.357       .  A
C1609      C1973   1.496       .  S
C1609      N1610   1.358       .  A
C1609      N1614   1.379       .  A
N1610      C1611   1.352       .  A
C1611      C2012   1.445       .  S
C1611      N1612   1.338       .  A
N1612      C1613   1.341       .  A
C1613      C1811   1.474       .  S
C1613      N1614   1.379       .  A
C1615      C1971   1.492       .  S
C1615      N1616   1.355       .  A
C1615      N1620   1.378       .  A
N1616      C1617   1.350       .  A
C1617      C2015   1.440       .  S
C1617      N1618   1.341       .  A
N1618      C1619   1.340       .  A
C1619      C1833   1.473       .  S
C1619      N1620   1.380       .  A
C1621      C1920   1.487       .  S
C1621      N1622   1.361       .  A
C1621      N1626   1.373       .  A
N1622      C1623   1.352       .  A
C1623      C2005   1.446       .  S
C1623      N1624   1.339       .  A
N1624      C1625   1.341       .  A
C1625      C1809   1.465       .  S
C1625      N1626   1.375       .  A
C1627      C1918   1.488       .  S
C1627      N1628   1.374       .  A
C1627      N1632   1.360       .  A
N1628      C1629   1.375       .  A
C1629      C1756   1.466       .  S
C1629      N1630   1.342       .  A
N1630      C1631   1.339       .  A
C1631      N1632   1.352       .  A
C1633      C1754   1.490       .  S
C1633      N1634   1.371   1_554  A
C1633      N1638   1.362       .  A
N1634      C1635   1.373       .  A
C1635      C1705   1.460       .  S
C1635      N1636   1.340       .  A
N1636      C1637   1.339   1_556  A
C1637      C1995   1.447       .  S
C1637      N1638   1.354       .  A
C1639      C1723   1.484       .  S
C1639      N1640   1.359       .  A
C1639      N1644   1.374       .  A
N1640      C1641   1.350       .  A
C1641      C1992   1.442       .  S
C1641      N1642   1.337       .  A
N1642      C1643   1.340       .  A
C1643      C1887   1.461       .  S
C1643      N1644   1.375       .  A
C1645      C1702   1.477       .  S
C1645      N1646   1.376       .  A
C1645      N1650   1.354       .  A
N1646      C1647   1.375       .  A
C1647      C1867   1.466       .  S
C1647      N1648   1.341       .  A
N1648      C1649   1.338       .  A
C1649      C1982   1.433       .  S
C1649      N1650   1.345       .  A
C1651      C1704   1.477       .  S
C1651      N1652   1.356       .  A
C1651      N1656   1.372       .  A
C1653      C1985   1.432       .  S
C1653      N1654   1.337       .  A
C1655      N1656   1.371       .  A
O1657      C1668   1.305       .  A
O1657     Eu1693   2.522       .  S
O1658      C1669   1.295       .  A
O1658     Eu1692   2.494       .  S
O1659      C1670   1.292       .  A
O1659     Eu1665   2.486       .  S
O1660      C1671   1.310       .  A
O1660     Eu1665   2.545       .  S
O1661      C1671   1.281       .  A
O1661     Eu1695   2.402       .  S
O1662      C1670   1.295       .  A
O1662     Eu1694   2.470       .  S
O1663      C1669   1.302       .  A
O1663     Eu1665   2.506       .  S
O1664      C1668   1.283       .  A
O1664     Eu1665   2.410       .  S
Eu1665     O1675   2.367       .  S
Eu1665     O1667   2.365       .  S
Eu1665     O1666   2.321       .  S
Eu1665     O1673   2.359       .  S
O1666     Eu1695   2.365       .  S
O1666     Eu1692   2.342       .  S
O1667     Eu1693   2.324       .  S
O1667     Eu1694   2.340       .  S
C1670      C2173   1.485   1_545  S
H1672      O1673   0.961       .  S
O1673     Eu1694   2.319       .  S
O1673     Eu1692   2.378       .  S
H1674      O1675   0.963       .  S
O1675     Eu1693   2.361       .  S
O1675     Eu1695   2.358       .  S
O1676      C1699   1.311       .  A
O1676     Eu1692   2.552       .  S
O1677      C1700   1.291   1_655  A
O1677     Eu1693   2.478       .  S
O1678      C1701   1.310       .  A
O1678     Eu1694   2.545       .  S
O1679      C1702   1.288       .  A
O1679     Eu1695   2.465       .  S
O1680      C1703   1.306       .  A
O1680     Eu1695   2.523       .  S
O1681      C1704   1.292       .  A
O1681     Eu1694   2.478       .  S
O1682      C1705   1.307       .  A
O1682     Eu1696   2.533       .  S
O1683      C1706   1.290       .  A
O1683     Eu1696   2.470       .  S
O1684      C1705   1.276       .  A
O1684     Eu1694   2.375       .  S
O1685      C1706   1.299       .  A
O1685     Eu1695   2.490       .  S
O1686      C1701   1.278       .  A
O1686     Eu1692   2.387       .  S
O1687      C1704   1.294       .  A
O1687     Eu1693   2.466       .  S
O1688      C1703   1.278       .  A
O1688     Eu1693   2.395       .  S
O1689      C1702   1.296       .  A
O1689     Eu1692   2.473       .  S
O1690      C1699   1.278       .  A
O1690     Eu1696   2.387       .  S
O1691      C1700   1.299   1_655  A
O1691     Eu1696   2.491       .  S
Eu1692     O1710   2.320       .  S
Eu1692     O1698   2.350       .  S
Eu1693     O1697   2.368       .  S
Eu1693     O1708   2.358       .  S
Eu1694     O1708   2.379       .  S
Eu1694     O1698   2.348       .  S
Eu1695     O1697   2.324       .  S
Eu1695     O1710   2.352       .  S
Eu1696     O1697   2.347       .  S
Eu1696     O1708   2.313       .  S
Eu1696     O1710   2.378       .  S
Eu1696     O1698   2.355       .  S
H1707      O1708   0.963       .  S
H1709      O1710   0.960       .  S
O1711      C1722   1.312       .  A
O1711     Eu1747   2.557       .  S
O1712      C1723   1.292       .  A
O1712     Eu1746   2.483       .  S
O1713      C1724   1.311       .  A
O1713     Eu1719   2.551       .  S
O1714      C1725   1.292   1_556  A
O1715      C1725   1.301       .  A
O1715     Eu1749   2.497       .  S
O1716      C2444   1.278       .  A
O1716     Eu1748   2.393       .  S
O1717      C1723   1.295       .  A
O1717     Eu1719   2.470   1_554  S
O1718      C1722   1.278       .  A
Eu1719     O1721   2.356       .  S
Eu1719     O1720   2.345   1_556  S
Eu1719     O1727   2.313   1_556  S
O1720     Eu1746   2.369       .  S
O1721     Eu2468   2.362       .  S
C1724      C2241   1.474       .  S
C1724      O2436   1.278       .  A
H1726      O1727   0.962   1_556  S
O1727     Eu2468   2.370   1_554  S
O1727     Eu1746   2.349       .  S
H1728      O1729   0.964   1_556  S
O1729     Eu1747   2.322   1_554  S
O1729     Eu1749   2.352       .  S
O1730      C1753   1.306       .  A
O1730     Eu2466   2.524       .  S
O1731      C1754   1.298   1_556  A
O1731     Eu2467   2.513   1_545  S
O1732      C1755   1.293   1_556  A
O1732     Eu1748   2.491       .  S
O1733     Eu1749   2.529   1_455  S
O1734      C1757   1.291       .  A
O1734     Eu1749   2.476       .  S
O1735      C1758   1.305       .  A
O1735     Eu1748   2.520       .  S
O1736      C1759   1.293       .  A
O1736     Eu1750   2.487       .  S
O1737      C2480   1.306       .  A
O1738      C1759   1.296       .  A
O1738     Eu1748   2.474   1_554  S
O1739      C1760   1.281       .  A
O1739     Eu1749   2.411       .  S
O1740      C1755   1.299       .  A
O1740     Eu2466   2.491       .  S
O1741     Eu2467   2.386   1_545  S
O1742      C1757   1.297       .  A
O1742     Eu1747   2.477   1_554  S
O1743      C1756   1.280       .  A
O1743     Eu1746   2.396       .  S
O1744      C1753   1.278       .  A
O1744     Eu1750   2.385       .  S
O1745      C1754   1.294       .  A
Eu1746     O2450   2.524       .  S
Eu1746     O2460   2.491       .  S
Eu1746     O1764   2.366       .  S
Eu1746     O2472   2.325       .  S
Eu1747     O2451   2.513       .  S
Eu1747     O2461   2.386       .  S
Eu1747     O1751   2.344   1_556  S
Eu1748     O2441   2.362   1_545  S
Eu1748     O2447   2.370   1_546  S
Eu1748     O1762   2.331   1_556  S
Eu1748     O1752   2.342   1_556  S
Eu1749     O1751   2.372       .  S
Eu1750     O1762   2.353       .  S
Eu1750     O2484   2.361   1_545  S
Eu1750     O1752   2.371       .  S
O1752     Eu2466   2.325       .  S
C1760      O2457   1.306       .  A
H1761      O1762   0.966   1_556  S
H1763      O1764   0.967       .  S
O1764     Eu2470   2.361       .  S
O1765      C1776   1.308       .  A
O1765     Eu1801   2.536       .  S
O1766      C1777   1.295       .  A
O1766     Eu1800   2.497       .  S
O1767      C1778   1.294       .  A
O1767     Eu1773   2.493       .  S
O1768      C1779   1.308       .  A
O1768     Eu1773   2.537       .  S
O1769      C1779   1.279       .  A
O1769     Eu1803   2.396       .  S
O1770      C1778   1.297       .  A
O1770     Eu1802   2.482       .  S
O1771      C1777   1.297       .  A
O1771     Eu1773   2.482       .  S
O1772      C1776   1.279       .  A
O1772     Eu1773   2.397       .  S
Eu1773     O1783   2.364       .  S
Eu1773     O1775   2.371       .  S
Eu1773     O1774   2.331       .  S
Eu1773     O1781   2.360       .  S
O1774     Eu1803   2.369       .  S
O1774     Eu1800   2.345       .  S
O1775     Eu1801   2.327       .  S
O1775     Eu1802   2.346       .  S
H1780      O1781   0.964       .  S
O1781     Eu1802   2.334       .  S
O1781     Eu1800   2.383       .  S
H1782      O1783   0.962       .  S
O1783     Eu1801   2.365       .  S
O1783     Eu1803   2.364       .  S
O1784      C1807   1.311       .  A
O1784     Eu1800   2.552       .  S
O1785      C1808   1.291       .  A
O1785     Eu1801   2.481       .  S
O1786      C1809   1.309       .  A
O1786     Eu1802   2.540       .  S
O1787      C1810   1.292       .  A
O1787     Eu1803   2.486       .  S
O1788      C1811   1.308       .  A
O1788     Eu1803   2.531       .  S
O1789      C1812   1.295       .  A
O1789     Eu1802   2.499       .  S
O1790      C1813   1.312       .  A
O1790     Eu1804   2.561       .  S
O1791      C1814   1.295       .  A
O1791     Eu1804   2.496       .  S
O1792      C1813   1.279       .  A
O1792     Eu1802   2.395       .  S
O1793      C1814   1.297       .  A
O1793     Eu1803   2.480       .  S
O1794      C1809   1.278       .  A
O1794     Eu1800   2.385       .  S
O1795      C1812   1.300       .  A
O1795     Eu1801   2.496       .  S
O1796      C1811   1.282       .  A
O1796     Eu1801   2.413       .  S
O1797      C1810   1.298       .  A
O1797     Eu1800   2.486       .  S
O1798      C1807   1.277       .  A
O1798     Eu1804   2.382       .  S
O1799      C1808   1.300       .  A
O1799     Eu1804   2.494       .  S
Eu1800     O1818   2.320       .  S
Eu1800     O1806   2.358       .  S
Eu1801     O1805   2.366       .  S
Eu1801     O1816   2.363       .  S
Eu1802     O1816   2.380       .  S
Eu1802     O1806   2.355       .  S
Eu1803     O1805   2.323       .  S
Eu1803     O1818   2.354       .  S
Eu1804     O1805   2.339       .  S
Eu1804     O1816   2.326       .  S
Eu1804     O1818   2.385       .  S
Eu1804     O1806   2.355       .  S
C1814      C2215   1.487   1_545  S
H1815      O1816   0.962       .  S
H1817      O1818   0.965       .  S
O1819      C1830   1.289       .  A
O1819     Eu1855   2.467       .  S
O1820      C1831   1.306       .  A
O1820     Eu1854   2.532       .  S
O1821      C1832   1.296       .  A
O1821     Eu1827   2.503       .  S
O1822      C1833   1.314       .  A
O1822     Eu1827   2.570       .  S
O1823      C1833   1.276       .  A
O1823     Eu1857   2.373       .  S
O1824      C1832   1.298       .  A
O1824     Eu1856   2.484       .  S
O1825      C1831   1.279       .  A
O1825     Eu1827   2.393       .  S
O1826      C1830   1.296       .  A
O1826     Eu1827   2.470       .  S
Eu1827     O1837   2.333       .  S
Eu1827     O1829   2.343       .  S
Eu1827     O1828   2.341       .  S
Eu1827     O1835   2.380       .  S
O1828     Eu1857   2.358       .  S
O1828     Eu1854   2.353       .  S
O1829     Eu1855   2.363       .  S
O1829     Eu1856   2.321       .  S
H1834      O1835   0.962       .  S
O1835     Eu1856   2.364       .  S
O1835     Eu1854   2.312       .  S
H1836      O1837   0.962       .  S
O1837     Eu1855   2.367       .  S
O1837     Eu1857   2.377       .  S
O1838      C1861   1.288       .  A
O1838     Eu1854   2.460       .  S
O1839      C1862   1.309       .  A
O1839     Eu1855   2.542       .  S
O1840      C1863   1.292       .  A
O1840     Eu1856   2.486       .  S
O1841      C1864   1.311       .  A
O1841     Eu1857   2.553       .  S
O1842      C1865   1.296       .  A
O1842     Eu1857   2.506       .  S
O1843      C1866   1.306       .  A
O1843     Eu1856   2.527       .  S
O1844      C1867   1.304       .  A
O1844     Eu1858   2.513       .  S
O1845      C1868   1.291       .  A
O1845     Eu1858   2.475       .  S
O1846      C1867   1.281       .  A
O1846     Eu1856   2.408       .  S
O1847      C1868   1.297       .  A
O1847     Eu1857   2.478       .  S
O1848      C1863   1.300       .  A
O1848     Eu1854   2.498       .  S
O1849      C1866   1.283       .  A
O1849     Eu1855   2.412       .  S
O1850      C1865   1.302       .  A
O1850     Eu1855   2.507       .  S
O1851      C1864   1.278       .  A
O1851     Eu1854   2.387       .  S
O1852      C1861   1.298       .  A
O1852     Eu1858   2.482       .  S
O1853      C1862   1.282       .  A
O1853     Eu1858   2.413       .  S
Eu1854     O1872   2.383       .  S
Eu1854     O1860   2.348       .  S
Eu1855     O1859   2.320       .  S
Eu1855     O1870   2.369       .  S
Eu1856     O1870   2.373       .  S
Eu1856     O1860   2.369       .  S
Eu1857     O1859   2.342       .  S
Eu1857     O1872   2.315       .  S
Eu1858     O1859   2.367       .  S
Eu1858     O1870   2.362       .  S
Eu1858     O1872   2.349       .  S
Eu1858     O1860   2.336       .  S
H1869      O1870   0.973       .  S
H1871      O1872   0.960       .  S
O1873      C1884   1.306       .  A
O1873     Eu1909   2.528       .  S
O1874      C1885   1.292       .  A
O1874     Eu1908   2.483       .  S
O1875      C1886   1.291       .  A
O1875     Eu1881   2.476       .  S
O1876      C1887   1.307       .  A
O1876     Eu1881   2.527       .  S
O1877      C1887   1.278       .  A
O1877     Eu1911   2.387       .  S
O1878      C1886   1.296       .  A
O1878     Eu1910   2.471       .  S
O1879      C1885   1.300       .  A
O1879     Eu1881   2.490       .  S
O1880      C1884   1.281       .  A
O1880     Eu1881   2.407       .  S
Eu1881     O1891   2.363       .  S
Eu1881     O1883   2.371       .  S
Eu1881     O1882   2.324       .  S
Eu1881     O1889   2.356       .  S
O1882     Eu1911   2.368       .  S
O1882     Eu1908   2.341       .  S
O1883     Eu1909   2.327       .  S
O1883     Eu1910   2.345       .  S
H1888      O1889   0.965       .  S
O1889     Eu1910   2.325       .  S
O1889     Eu1908   2.375       .  S
H1890      O1891   0.962       .  S
O1891     Eu1909   2.364       .  S
O1891     Eu1911   2.365       .  S
O1892      C1915   1.308       .  A
O1892     Eu1908   2.536       .  S
O1893      C1916   1.293       .  A
O1893     Eu1909   2.490       .  S
O1894      C1917   1.311       .  A
O1894     Eu1910   2.556       .  S
O1895      C1918   1.294       .  A
O1895     Eu1911   2.491       .  S
O1896      C1919   1.308       .  A
O1896     Eu1911   2.534       .  S
O1897      C1920   1.296       .  A
O1897     Eu1910   2.505       .  S
O1898      C1921   1.310       .  A
O1898     Eu1912   2.548       .  S
O1899      C1922   1.297       .  A
O1899     Eu1912   2.508       .  S
O1900      C1921   1.278       .  A
O1900     Eu1910   2.381       .  S
O1901      C1922   1.297       .  A
O1901     Eu1911   2.484       .  S
O1902      C1917   1.277       .  A
O1902     Eu1908   2.385       .  S
O1903      C1920   1.295       .  A
O1903     Eu1909   2.468       .  S
O1904      C1919   1.277       .  A
O1904     Eu1909   2.382       .  S
O1905      C1918   1.295       .  A
O1905     Eu1908   2.472       .  S
O1906      C1915   1.277       .  A
O1906     Eu1912   2.381       .  S
O1907      C1916   1.297       .  A
O1907     Eu1912   2.479       .  S
Eu1908     O1926   2.319       .  S
Eu1908     O1914   2.350       .  S
Eu1909     O1913   2.368       .  S
Eu1909     O1924   2.359       .  S
Eu1910     O1924   2.382       .  S
Eu1910     O1914   2.351       .  S
Eu1911     O1913   2.323       .  S
Eu1911     O1926   2.350       .  S
Eu1912     O1913   2.341       .  S
Eu1912     O1924   2.331       .  S
Eu1912     O1926   2.376       .  S
Eu1912     O1914   2.354       .  S
C1922      C2227   1.494       .  S
H1923      O1924   0.961       .  S
H1925      O1926   0.963       .  S
O1927     Eu2683   2.554   1_445  S
O1928      C1939   1.293       .  A
O1928     Eu2682   2.485   1_545  S
O1929      C2660   1.312       .  A
O1929     Eu1935   2.556   1_565  S
O1930      C1941   1.295       .  A
O1930     Eu1935   2.502       .  S
O1931      C1941   1.300       .  A
O1931     Eu1965   2.497       .  S
O1932      C1940   1.279       .  A
O1932     Eu1964   2.401       .  S
O1933      C1939   1.298       .  A
O1933     Eu1935   2.484       .  S
O1934      C1938   1.278       .  A
O1934     Eu1935   2.388       .  S
Eu1935     O1945   2.384       .  S
Eu1935     O2657   2.358   1_545  S
Eu1935     O1936   2.347       .  S
Eu1935     O2663   2.330   1_545  S
O1936     Eu1965   2.334       .  S
O1936     Eu2682   2.375   1_545  S
O1937     Eu2655   2.358       .  S
O1937     Eu1964   2.358       .  S
C1940      O2649   1.312       .  A
H1942      O1943   0.963       .  S
O1943     Eu2655   2.330       .  S
O1943     Eu1964   2.381       .  S
O1943     Eu1962   2.361       .  S
H1944      O1945   0.964       .  S
O1945     Eu1965   2.354       .  S
O1946      C1969   1.308       .  A
O1946     Eu1962   2.536       .  S
O1947      C1970   1.295       .  A
O1947     Eu1963   2.499       .  S
O1948      C1971   1.292       .  A
O1948     Eu1964   2.482       .  S
O1949      C1972   1.307       .  A
O1949     Eu1965   2.528       .  S
O1950      C1973   1.293       .  A
O1951      C1974   1.309       .  A
O1952      C1975   1.292       .  A
O1952     Eu1966   2.483       .  S
O1953      C1976   1.308       .  A
O1953     Eu1966   2.533       .  S
O1954      C1975   1.300       .  A
O1955      C2696   1.281       .  A
O1956      C1971   1.302       .  A
O1956     Eu1962   2.504       .  S
O1957      C1974   1.278       .  A
O1957     Eu1963   2.389       .  S
O1958      C1973   1.300       .  A
O1958     Eu2683   2.498   1_545  S
O1959      C1972   1.282       .  A
O1959     Eu2682   2.413   1_545  S
O1960     Eu1966   2.399       .  S
O1961      C1970   1.296       .  A
O1961     Eu1966   2.474       .  S
Eu1962     O2648   2.485       .  S
Eu1962     O2679   2.413       .  S
Eu1962     O2656   2.375       .  S
Eu1962     O1980   2.367       .  S
Eu1962     O1968   2.330       .  S
Eu1963     O2647   2.554   1_655  S
Eu1963     O2678   2.498       .  S
Eu1963     O1967   2.339       .  S
Eu1963     O1978   2.382       .  S
Eu1964     O1968   2.348       .  S
Eu1965     O2700   2.369   1_545  S
Eu1966     O1967   2.324       .  S
Eu1966     O1978   2.359       .  S
C1976      C2315   1.473       .  S
C1976      O2675   1.281       .  A
H1977      O1978   0.963       .  S
H1979      O1980   0.963       .  S
O1980     Eu2685   2.369       .  S
C1981      C1982   1.405       .  A
C1981      C1986   1.394       .  A
C1981     Br1988   1.930       .  S
C1982      C1983   1.402       .  A
C1983      C1984   1.391       .  A
C1983     Br1990   1.933       .  S
C1984      C1985   1.406       .  A
C1984     Br1989   1.934       .  S
C1985      C1986   1.403       .  A
C1986     Br1987   1.933       .  S
C1991      C1992   1.403       .  A
C1991      C1996   1.397       .  A
C1991     Br1998   1.931       .  S
C1992      C1993   1.407       .  A
C1993     Br2000   1.935       .  S
C1994      C1995   1.406       .  A
C1994     Br1999   1.929       .  S
C1996     Br1997   1.932   1_554  S
C2001      C2002   1.405       .  A
C2001      C2006   1.400       .  A
C2001     Br2008   1.930       .  S
C2002      C2003   1.408       .  A
C2003      C2004   1.396       .  A
C2003     Br2010   1.933       .  S
C2004      C2005   1.403       .  A
C2004     Br2009   1.930       .  S
C2005      C2006   1.407       .  A
C2006     Br2007   1.932       .  S
C2011      C2732   1.408       .  A
C2011      C2016   1.396       .  A
C2011     Br2018   1.930       .  S
C2012      C2731   1.408   1_545  A
C2012      C2013   1.407       .  A
C2013      C2734   1.395   1_545  A
C2013     Br2020   1.933       .  S
C2014      C2733   1.395       .  A
C2014      C2015   1.407       .  A
C2014     Br2019   1.934       .  S
C2015      C2016   1.402       .  A
C2016     Br2017   1.931       .  S
C2021      C2022   1.408       .  A
C2021      C2026   1.401       .  A
C2021     Br2028   1.936       .  S
C2022      C2023   1.405       .  A
C2023      C2024   1.398       .  A
C2023     Br2030   1.907       .  S
C2024      C2025   1.407       .  A
C2024     Br2029   1.932       .  S
C2025      C2327   1.476   1_545  S
C2025      C2026   1.409       .  A
C2026     Br2027   1.904   1_545  S
C2031      C2032   1.404       .  A
C2031      C2036   1.398       .  A
C2031     Br2038   1.922       .  S
C2032      C2033   1.407       .  A
C2033      C2034   1.395       .  A
C2033     Br2040   1.932       .  S
C2034      C2035   1.406       .  A
C2034     Br2039   1.934       .  S
C2035      C2036   1.405       .  A
C2036     Br2037   1.930       .  S
C2041      C2042   1.408       .  A
C2041      C2046   1.398       .  A
C2041     Br2768   1.930       .  S
C2042      C2303   1.443   1_545  S
C2042      C2043   1.402       .  A
C2043      C2044   1.395       .  A
C2044      C2045   1.406       .  A
C2045      C2046   1.401       .  A
C2046     Br2047   1.928       .  S
Br2048     C2761   1.930       .  S
C2051      C2052   1.405       .  A
C2051      C2056   1.398       .  A
C2051     Br2058   1.924       .  S
C2052      C2053   1.408       .  A
C2053      C2054   1.396       .  A
C2053     Br2060   1.932       .  S
C2054      C2055   1.403       .  A
C2054     Br2059   1.931       .  S
C2055      C2056   1.406       .  A
C2056     Br2057   1.931       .  S
C2061      C2062   1.405       .  A
C2061      C2786   1.394   1_545  A
C2061     Br2068   1.932       .  S
C2062      C2783   1.406   1_545  A
C2063      C2782   1.406       .  A
C2063      C2064   1.396       .  A
C2063     Br2070   1.930   1_554  S
C2064      C2065   1.404       .  A
C2064     Br2069   1.931       .  S
C2065      C2066   1.406       .  A
C2066      C2781   1.394       .  A
C2066     Br2787   1.933       .  S
Br2067     C2786   1.933   1_545  S
C2071      C2072   1.408       .  A
C2071      C2076   1.399       .  A
C2071     Br2078   1.932       .  S
C2072      C2073   1.402       .  A
C2073      C2074   1.397       .  A
C2073     Br2080   1.929       .  S
C2074      C2075   1.409       .  A
C2074     Br2079   1.935       .  S
C2075      C2076   1.406       .  A
C2076     Br2077   1.931       .  S
C2081      C2082   1.404       .  A
C2081      C2086   1.397       .  A
C2082      C2083   1.408       .  A
C2083      C2084   1.395       .  A
C2083     Br2090   1.932       .  S
C2084      C2085   1.402       .  A
C2084     Br2089   1.933       .  S
C2085      C2086   1.406       .  A
C2091      C2092   1.405       .  A
C2091      C2096   1.397       .  A
C2091     Br2098   1.918       .  S
C2092      C2093   1.410       .  A
C2093      C2094   1.398       .  A
C2093     Br2100   1.934       .  S
C2094      C2095   1.408       .  A
C2094     Br2099   1.918       .  S
C2095      C2096   1.411       .  A
C2096     Br2097   1.934       .  S
C2101      C2102   1.403       .  A
C2101      C2106   1.397       .  A
C2101     Br2108   1.929       .  S
C2102      C2103   1.410       .  A
C2103      C2104   1.395       .  A
C2103     Br2830   1.933       .  S
C2104      C2105   1.399       .  A
C2104     Br2109   1.931       .  S
C2105      C2106   1.407       .  A
C2106     Br2107   1.933       .  S
Br2110     C2823   1.933       .  S
C2111      C2112   1.405       .  A
C2111      C2116   1.398       .  A
C2111     Br2118   1.930       .  S
C2112      C2113   1.408       .  A
C2113      C2114   1.396       .  A
C2113     Br2120   1.933       .  S
C2114      C2115   1.402       .  A
C2114     Br2119   1.928       .  S
C2115      C2116   1.407       .  A
C2116     Br2117   1.933       .  S
C2121      C2122   1.403       .  A
C2121      C2126   1.394       .  A
C2121     Br2128   1.934       .  S
C2122      C2123   1.406       .  A
C2123      C2124   1.398       .  A
C2123     Br2130   1.931   1_554  S
C2124      C2125   1.406       .  A
C2124     Br2129   1.929       .  S
C2125      C2126   1.407       .  A
C2126     Br2127   1.931       .  S
C2131      C2136   1.397       .  A
C2133      C2134   1.397       .  A
C2133     Br2140   1.934       .  S
C2134      C2135   1.407       .  A
C2134     Br2139   1.931       .  S
C2135      C2136   1.406       .  A
C2136     Br2137   1.932       .  S
C2141      C2142   1.412       .  A
C2141      C2146   1.396       .  A
C2141     Br2148   1.932       .  S
C2142      C2143   1.405       .  A
C2143      C2144   1.394       .  A
C2143     Br2150   1.915       .  S
C2144      C2145   1.406       .  A
C2144     Br2149   1.933       .  S
C2145      C2146   1.405       .  A
C2146     Br2147   1.922       .  S
C2151      C2152   1.400       .  A
C2151      C2156   1.390       .  A
C2151     Br2158   1.933       .  S
C2152      C2153   1.405       .  A
C2153      C2154   1.391       .  A
C2154      C2155   1.401       .  A
C2154     Br2159   1.930       .  S
C2155      C2156   1.406       .  A
C2156     Br2877   1.930   1_545  S
Br2157     C2876   1.930       .  S
C2161      C2550   1.476       .  S
N2162      C2163   1.374       .  A
C2163      C2388   1.468       .  S
C2163      N2164   1.343       .  A
N2164      C2165   1.341       .  A
C2165      C2875   1.432       .  S
C2165      N2166   1.344       .  A
C2167      C2581   1.478       .  S
C2167      N2168   1.377       .  A
C2167      N2172   1.350       .  A
N2168      C2169   1.378       .  A
C2169      C2658   1.470       .  S
C2169      N2170   1.338       .  A
N2170      C2171   1.339       .  A
C2171      N2172   1.343       .  A
C2173      N2174   1.375       .  A
C2173      N2178   1.359       .  A
N2174      C2175   1.372       .  A
C2175      C2586   1.470       .  S
C2175      N2176   1.339       .  A
N2176      C2177   1.342       .  A
C2177      C2862   1.472       .  S
C2177      N2178   1.352       .  A
C2179      C2426   1.484       .  S
C2179      N2180   1.377       .  A
C2179      N2184   1.355       .  A
N2180      C2181   1.375       .  A
C2181      C2442   1.472       .  S
C2181      N2182   1.336       .  A
N2182      C2183   1.345       .  A
C2183      C2865   1.462       .  S
C2183      N2184   1.349       .  A
C2185      C2695   1.493       .  S
C2185      N2186   1.359       .  A
C2185      N2190   1.377       .  A
N2186      C2187   1.353       .  A
C2187      C2852   1.448       .  S
C2187      N2188   1.338       .  A
N2188      C2189   1.340       .  A
C2189      C2496   1.469       .  S
C2189      N2190   1.377       .  A
C2191      C2661   1.496       .  S
C2191      N2192   1.377       .  A
C2191      N2196   1.359       .  A
N2192      C2193   1.379       .  A
C2193      C2584   1.471       .  S
C2193      N2194   1.341       .  A
N2194      C2195   1.340       .  A
C2195      C2855   1.449       .  S
C2195      N2196   1.353       .  A
C2197      C2445   1.489       .  S
C2197      N2198   1.358       .  A
C2197      N2202   1.377   1_554  A
N2198      C2199   1.350       .  A
C2199      C2842   1.441       .  S
C2199      N2200   1.338   1_554  A
N2200      C2201   1.339       .  A
C2201      C2419   1.471       .  S
C2201      N2202   1.378       .  A
C2203      C2479   1.486       .  S
C2203      N2204   1.374       .  A
C2203      N2208   1.358       .  A
N2204      C2205   1.375       .  A
C2205      C2604   1.469       .  S
C2205      N2206   1.343       .  A
N2206      C2207   1.341       .  A
C2207      C2845   1.446       .  S
C2207      N2208   1.351       .  A
C2209      C2498   1.492       .  S
C2209      N2210   1.359       .  A
C2209      N2214   1.377       .  A
C2211      C2832   1.445       .  S
C2211      N2212   1.339       .  A
C2213      N2214   1.377       .  A
C2215      N2216   1.358       .  A
C2215      N2220   1.373       .  A
N2216      C2217   1.350       .  A
C2217      C2835   1.443       .  S
C2217      N2218   1.340       .  A
N2218      C2219   1.342       .  A
C2219      C2635   1.464       .  S
C2219      N2220   1.376       .  A
C2221      C2606   1.480       .  S
C2221      N2222   1.357       .  A
C2221      N2226   1.374       .  A
N2222      C2223   1.347       .  A
C2223      C2825   1.438       .  S
C2223      N2224   1.337       .  A
N2224      C2225   1.340       .  A
C2225      C2473   1.461       .  S
C2225      N2226   1.374       .  A
C2227      N2228   1.361       .  A
C2227      N2232   1.376       .  A
N2228      C2229   1.353       .  A
C2229      C2822   1.443       .  S
C2229      N2230   1.339       .  A
N2230      C2231   1.338       .  A
C2231      C2527   1.467       .  S
C2231      N2232   1.377       .  A
C2233      N2234   1.359       .  A
C2233      N2238   1.378       .  A
N2234      C2235   1.352       .  A
C2235      C2812   1.475       .  S
C2235      N2236   1.344       .  A
N2236      C2237   1.340       .  A
C2237      C2582   1.478       .  S
C2237      N2238   1.375       .  A
C2239      C2389   1.495       .  S
C2239      N2240   1.377       .  A
C2239      N2244   1.360       .  A
N2240      C2241   1.376       .  A
N2242      C2243   1.343       .  A
C2243      C2815   1.474       .  S
C2245      C2552   1.491       .  S
C2245      N2246   1.374       .  A
C2245      N2250   1.359       .  A
N2246      C2247   1.376       .  A
C2247      C2694   1.468       .  S
C2247      N2248   1.341       .  A
N2248      C2249   1.341       .  A
C2249      C2802   1.443       .  S
C2249      N2250   1.352       .  A
C2251      C2588   1.484       .  S
N2252      C2253   1.348       .  A
C2253      C2805   1.439       .  S
C2253      N2254   1.337       .  A
N2254      C2255   1.340       .  A
C2255      C2423   1.465       .  S
C2255      N2256   1.376       .  A
C2257      C2659   1.490       .  S
C2257      N2258   1.375       .  A
C2257      N2262   1.359       .  A
N2258      C2259   1.375       .  A
C2259      C2499   1.468       .  S
C2259      N2260   1.342       .  A
N2260      C2261   1.340       .  A
C2261      C2795   1.447       .  S
C2261      N2262   1.352       .  A
C2263      C2690   1.487       .  S
C2263      N2264   1.359       .  A
C2263      N2268   1.372       .  A
N2264      C2265   1.351       .  A
C2265      C2792   1.448       .  S
C2265      N2266   1.343       .  A
N2266      C2267   1.344       .  A
C2267      C2551   1.468       .  S
C2267      N2268   1.374       .  A
C2269      C2475   1.490       .  S
C2269      N2270   1.358       .  A
C2269      N2274   1.376   1_554  A
N2270      C2271   1.350       .  A
C2271      C2782   1.441       .  S
C2271      N2272   1.339   1_554  A
N2272      C2273   1.340       .  A
C2273      C2421   1.470       .  S
C2273      N2274   1.378       .  A
C2275      C2477   1.483       .  S
C2275      N2276   1.357       .  A
C2275      N2280   1.375       .  A
N2276      C2277   1.349       .  A
C2277      C2785   1.438       .  S
C2277      N2278   1.335       .  A
N2278      C2279   1.338       .  A
C2279      C2639   1.460       .  S
C2279      N2280   1.375       .  A
C2281      C2530   1.490       .  S
C2281      N2282   1.377       .  A
C2281      N2286   1.359       .  A
N2282      C2283   1.377       .  A
C2283      C2692   1.473       .  S
C2283      N2284   1.343       .  A
N2284      C2285   1.340       .  A
C2285      C2775   1.447       .  S
C2285      N2286   1.350       .  A
C2287      N2288   1.358       .  A
C2287      N2292   1.377       .  A
N2288      C2289   1.353       .  A
C2289      C2772   1.449       .  S
C2289      N2290   1.342       .  A
N2290      C2291   1.342       .  A
C2291      C2637   1.474       .  S
C2291      N2292   1.379       .  A
C2293      C2605   1.489       .  S
N2294      C2295   1.348       .  A
C2295      C2765   1.441       .  S
C2295      N2296   1.343       .  A
N2296      C2297   1.343       .  A
C2297      C2533   1.478       .  S
C2297      N2298   1.379       .  A
C2299      C2636   1.488       .  S
C2299      N2300   1.377       .  A
C2299      N2304   1.359       .  A
N2300      C2301   1.377       .  A
C2301      C2480   1.474       .  S
C2301      N2302   1.343       .  A
N2302      C2303   1.340       .  A
C2303      N2304   1.349       .  A
C2305      C2497   1.489       .  S
C2305      N2306   1.358       .  A
C2305      N2310   1.373       .  A
N2306      C2307   1.352       .  A
C2307      C2752   1.447       .  S
C2307      N2308   1.343       .  A
N2308      C2309   1.343       .  A
C2309      C2641   1.467       .  S
C2309      N2310   1.375       .  A
C2311      C2528   1.491       .  S
C2311      N2312   1.359       .  A
C2311      N2316   1.379       .  A
C2313      C2755   1.444       .  S
C2313      N2314   1.337       .  A
C2315      N2316   1.378       .  A
C2317      C2583   1.496       .  S
C2317      N2318   1.359       .  A
C2317      N2322   1.377       .  A
N2318      C2319   1.354       .  A
C2319      C2742   1.475       .  S
C2319      N2320   1.344       .  A
N2320      C2321   1.341       .  A
C2321      C2391   1.474       .  S
C2321      N2322   1.376       .  A
C2323      C2585   1.502       .  S
C2323      N2324   1.377       .  A
C2323      N2328   1.360       .  A
N2324      C2325   1.378       .  A
C2325      C2660   1.479       .  S
C2325      N2326   1.341       .  A
N2326      C2327   1.345       .  A
C2327      N2328   1.357       .  A
C2329      C2693   1.496       .  S
C2329      N2330   1.358       .  A
C2329      N2334   1.379       .  A
N2330      C2331   1.352       .  A
C2331      C2732   1.445       .  S
C2331      N2332   1.338       .  A
N2332      C2333   1.341       .  A
C2333      C2531   1.474       .  S
C2333      N2334   1.379       .  A
C2335      C2691   1.492       .  S
C2335      N2336   1.355       .  A
C2335      N2340   1.378       .  A
N2336      C2337   1.350       .  A
C2337      C2735   1.440       .  S
C2337      N2338   1.341       .  A
N2338      C2339   1.340       .  A
C2339      C2553   1.473       .  S
C2339      N2340   1.380       .  A
C2341      C2640   1.487       .  S
C2341      N2342   1.361       .  A
C2341      N2346   1.373       .  A
N2342      C2343   1.352       .  A
C2343      C2725   1.446       .  S
C2343      N2344   1.339       .  A
N2344      C2345   1.341       .  A
C2345      C2529   1.465       .  S
C2345      N2346   1.375       .  A
C2347      C2638   1.488       .  S
C2347      N2348   1.374       .  A
C2347      N2352   1.360       .  A
N2348      C2349   1.375       .  A
C2349      C2476   1.466       .  S
C2349      N2350   1.342       .  A
N2350      C2351   1.339       .  A
C2351      N2352   1.352       .  A
C2353      C2474   1.490       .  S
C2353      N2354   1.371   1_554  A
C2353      N2358   1.362       .  A
N2354      C2355   1.373       .  A
C2355      C2425   1.460       .  S
C2355      N2356   1.340       .  A
N2356      C2357   1.339   1_556  A
C2357      C2715   1.447       .  S
C2357      N2358   1.354       .  A
C2359      C2443   1.484       .  S
C2359      N2360   1.359       .  A
C2359      N2364   1.374       .  A
N2360      C2361   1.350       .  A
C2361      C2712   1.442       .  S
C2361      N2362   1.337       .  A
N2362      C2363   1.340       .  A
C2363      C2607   1.461       .  S
C2363      N2364   1.375       .  A
C2365      C2422   1.477       .  S
C2365      N2366   1.376       .  A
C2365      N2370   1.354       .  A
N2366      C2367   1.375       .  A
C2367      C2587   1.466       .  S
C2367      N2368   1.341       .  A
N2368      C2369   1.338       .  A
C2369      C2702   1.433       .  S
C2369      N2370   1.345       .  A
C2371      C2424   1.477       .  S
C2371      N2372   1.356       .  A
C2371      N2376   1.372       .  A
C2373      C2705   1.432       .  S
C2373      N2374   1.337       .  A
C2375      N2376   1.371       .  A
O2377      C2388   1.305       .  A
O2377     Eu2413   2.522       .  S
O2378      C2389   1.295       .  A
O2378     Eu2412   2.494       .  S
O2379      C2390   1.292       .  A
O2379     Eu2385   2.486       .  S
O2380      C2391   1.310       .  A
O2380     Eu2385   2.545       .  S
O2381      C2391   1.281       .  A
O2381     Eu2415   2.402       .  S
O2382      C2390   1.295       .  A
O2382     Eu2414   2.470       .  S
O2383      C2389   1.302       .  A
O2383     Eu2385   2.506       .  S
O2384      C2388   1.283       .  A
O2384     Eu2385   2.410       .  S
Eu2385     O2395   2.367       .  S
Eu2385     O2387   2.365       .  S
Eu2385     O2386   2.321       .  S
Eu2385     O2393   2.359       .  S
O2386     Eu2415   2.365       .  S
O2386     Eu2412   2.342       .  S
O2387     Eu2413   2.324       .  S
O2387     Eu2414   2.340       .  S
H2392      O2393   0.961       .  S
O2393     Eu2414   2.319       .  S
O2393     Eu2412   2.378       .  S
H2394      O2395   0.963       .  S
O2395     Eu2413   2.361       .  S
O2395     Eu2415   2.358       .  S
O2396      C2419   1.311       .  A
O2396     Eu2412   2.552       .  S
O2397      C2420   1.291   1_655  A
O2397     Eu2413   2.478       .  S
O2398      C2421   1.310       .  A
O2398     Eu2414   2.545       .  S
O2399      C2422   1.288       .  A
O2399     Eu2415   2.464       .  S
O2400      C2423   1.306       .  A
O2400     Eu2415   2.523       .  S
O2401      C2424   1.292       .  A
O2401     Eu2414   2.478       .  S
O2402      C2425   1.307       .  A
O2402     Eu2416   2.533       .  S
O2403      C2426   1.290       .  A
O2403     Eu2416   2.470       .  S
O2404      C2425   1.276       .  A
O2404     Eu2414   2.375       .  S
O2405      C2426   1.299       .  A
O2405     Eu2415   2.490       .  S
O2406      C2421   1.278       .  A
O2406     Eu2412   2.387       .  S
O2407      C2424   1.294       .  A
O2407     Eu2413   2.466       .  S
O2408      C2423   1.278       .  A
O2408     Eu2413   2.395       .  S
O2409      C2422   1.296       .  A
O2409     Eu2412   2.473       .  S
O2410      C2419   1.278       .  A
O2410     Eu2416   2.387       .  S
O2411      C2420   1.299   1_655  A
O2411     Eu2416   2.491       .  S
Eu2412     O2430   2.320       .  S
Eu2412     O2418   2.350       .  S
Eu2413     O2417   2.368       .  S
Eu2413     O2428   2.358       .  S
Eu2414     O2428   2.379       .  S
Eu2414     O2418   2.348       .  S
Eu2415     O2417   2.324       .  S
Eu2415     O2430   2.352       .  S
Eu2416     O2417   2.347       .  S
Eu2416     O2428   2.313       .  S
Eu2416     O2430   2.378       .  S
Eu2416     O2418   2.355       .  S
H2427      O2428   0.963       .  S
H2429      O2430   0.960       .  S
O2431      C2442   1.312       .  A
O2431     Eu2467   2.557       .  S
O2432      C2443   1.292       .  A
O2432     Eu2466   2.483   1_565  S
O2433      C2444   1.311   1_565  A
O2433     Eu2439   2.551       .  S
O2434      C2445   1.292   1_556  A
O2435      C2445   1.301       .  A
O2435     Eu2469   2.497       .  S
O2436     Eu2468   2.393       .  S
O2437      C2443   1.295       .  A
O2437     Eu2439   2.470   1_554  S
O2438      C2442   1.278       .  A
Eu2439     O2441   2.356       .  S
Eu2439     O2440   2.345   1_556  S
Eu2439     O2447   2.313   1_556  S
O2440     Eu2466   2.369   1_565  S
H2446      O2447   0.962   1_556  S
O2447     Eu2466   2.349   1_565  S
H2448      O2449   0.964   1_556  S
O2449     Eu2467   2.322   1_554  S
O2449     Eu2469   2.352       .  S
O2450      C2473   1.306       .  A
O2451      C2474   1.298   1_556  A
O2452      C2475   1.293   1_556  A
O2452     Eu2468   2.491       .  S
O2453     Eu2469   2.529   1_455  S
O2454      C2477   1.291       .  A
O2454     Eu2469   2.476       .  S
O2455      C2478   1.305       .  A
O2455     Eu2468   2.520       .  S
O2456      C2479   1.293       .  A
O2456     Eu2470   2.487       .  S
O2458      C2479   1.296       .  A
O2458     Eu2468   2.474   1_554  S
O2459      C2480   1.281       .  A
O2459     Eu2469   2.411       .  S
O2460      C2475   1.299       .  A
O2462      C2477   1.297       .  A
O2462     Eu2467   2.477   1_554  S
O2463      C2476   1.280       .  A
O2463     Eu2466   2.396   1_565  S
O2464      C2473   1.278       .  A
O2464     Eu2470   2.385       .  S
O2465      C2474   1.294       .  A
Eu2466     O2484   2.366   1_545  S
Eu2467     O2471   2.344   1_556  S
Eu2468     O2482   2.331   1_556  S
Eu2468     O2472   2.342   1_556  S
Eu2469     O2471   2.372       .  S
Eu2470     O2482   2.353       .  S
Eu2470     O2472   2.371       .  S
H2481      O2482   0.966   1_556  S
H2483      O2484   0.967       .  S
O2485      C2496   1.308       .  A
O2485     Eu2521   2.536       .  S
O2486      C2497   1.295       .  A
O2486     Eu2520   2.497       .  S
O2487      C2498   1.294       .  A
O2487     Eu2493   2.493       .  S
O2488      C2499   1.308       .  A
O2488     Eu2493   2.537       .  S
O2489      C2499   1.279       .  A
O2489     Eu2523   2.396       .  S
O2490      C2498   1.297       .  A
O2490     Eu2522   2.482       .  S
O2491      C2497   1.297       .  A
O2491     Eu2493   2.482       .  S
O2492      C2496   1.279       .  A
O2492     Eu2493   2.397       .  S
Eu2493     O2503   2.364       .  S
Eu2493     O2495   2.371       .  S
Eu2493     O2494   2.331       .  S
Eu2493     O2501   2.360       .  S
O2494     Eu2523   2.369       .  S
O2494     Eu2520   2.345       .  S
O2495     Eu2521   2.327       .  S
O2495     Eu2522   2.346       .  S
H2500      O2501   0.964       .  S
O2501     Eu2522   2.334       .  S
O2501     Eu2520   2.383       .  S
H2502      O2503   0.962       .  S
O2503     Eu2521   2.365       .  S
O2503     Eu2523   2.364       .  S
O2504      C2527   1.311       .  A
O2504     Eu2520   2.552       .  S
O2505      C2528   1.291       .  A
O2505     Eu2521   2.481       .  S
O2506      C2529   1.309       .  A
O2506     Eu2522   2.540       .  S
O2507      C2530   1.292       .  A
O2507     Eu2523   2.486       .  S
O2508      C2531   1.308       .  A
O2508     Eu2523   2.531       .  S
O2509      C2532   1.295       .  A
O2509     Eu2522   2.499       .  S
O2510      C2533   1.312       .  A
O2510     Eu2524   2.561       .  S
O2511      C2534   1.295       .  A
O2511     Eu2524   2.496       .  S
O2512      C2533   1.279       .  A
O2512     Eu2522   2.395       .  S
O2513      C2534   1.297       .  A
O2513     Eu2523   2.480       .  S
O2514      C2529   1.278       .  A
O2514     Eu2520   2.385       .  S
O2515      C2532   1.300       .  A
O2515     Eu2521   2.496       .  S
O2516      C2531   1.282       .  A
O2516     Eu2521   2.413       .  S
O2517      C2530   1.298       .  A
O2517     Eu2520   2.486       .  S
O2518      C2527   1.277       .  A
O2518     Eu2524   2.382       .  S
O2519      C2528   1.300       .  A
O2519     Eu2524   2.494       .  S
Eu2520     O2538   2.320       .  S
Eu2520     O2526   2.358       .  S
Eu2521     O2525   2.366       .  S
Eu2521     O2536   2.363       .  S
Eu2522     O2536   2.380       .  S
Eu2522     O2526   2.355       .  S
Eu2523     O2525   2.323       .  S
Eu2523     O2538   2.354       .  S
Eu2524     O2525   2.339       .  S
Eu2524     O2536   2.326       .  S
Eu2524     O2538   2.385       .  S
Eu2524     O2526   2.355       .  S
H2535      O2536   0.962       .  S
H2537      O2538   0.965       .  S
O2539      C2550   1.289       .  A
O2539     Eu2575   2.467       .  S
O2540      C2551   1.306       .  A
O2540     Eu2574   2.532       .  S
O2541      C2552   1.296       .  A
O2541     Eu2547   2.503       .  S
O2542      C2553   1.314       .  A
O2542     Eu2547   2.570       .  S
O2543      C2553   1.276       .  A
O2543     Eu2577   2.373       .  S
O2544      C2552   1.298       .  A
O2544     Eu2576   2.484       .  S
O2545      C2551   1.279       .  A
O2545     Eu2547   2.393       .  S
O2546      C2550   1.296       .  A
O2546     Eu2547   2.470       .  S
Eu2547     O2557   2.333       .  S
Eu2547     O2549   2.343       .  S
Eu2547     O2548   2.341       .  S
Eu2547     O2555   2.380       .  S
O2548     Eu2577   2.358       .  S
O2548     Eu2574   2.353       .  S
O2549     Eu2575   2.363       .  S
O2549     Eu2576   2.321       .  S
H2554      O2555   0.962       .  S
O2555     Eu2576   2.364       .  S
O2555     Eu2574   2.312       .  S
H2556      O2557   0.962       .  S
O2557     Eu2575   2.367       .  S
O2557     Eu2577   2.377       .  S
O2558      C2581   1.288       .  A
O2558     Eu2574   2.460       .  S
O2559      C2582   1.309       .  A
O2559     Eu2575   2.542       .  S
O2560      C2583   1.292       .  A
O2560     Eu2576   2.486       .  S
O2561      C2584   1.311       .  A
O2561     Eu2577   2.553       .  S
O2562      C2585   1.296       .  A
O2562     Eu2577   2.506       .  S
O2563      C2586   1.306       .  A
O2563     Eu2576   2.527       .  S
O2564      C2587   1.304       .  A
O2564     Eu2578   2.513       .  S
O2565      C2588   1.291       .  A
O2565     Eu2578   2.475       .  S
O2566      C2587   1.281       .  A
O2566     Eu2576   2.408       .  S
O2567      C2588   1.297       .  A
O2567     Eu2577   2.478       .  S
O2568      C2583   1.300       .  A
O2568     Eu2574   2.498       .  S
O2569      C2586   1.283       .  A
O2569     Eu2575   2.412       .  S
O2570      C2585   1.302       .  A
O2570     Eu2575   2.507       .  S
O2571      C2584   1.278       .  A
O2571     Eu2574   2.387       .  S
O2572      C2581   1.298       .  A
O2572     Eu2578   2.482       .  S
O2573      C2582   1.282       .  A
O2573     Eu2578   2.413       .  S
Eu2574     O2592   2.383       .  S
Eu2574     O2580   2.348       .  S
Eu2575     O2579   2.320       .  S
Eu2575     O2590   2.369       .  S
Eu2576     O2590   2.373       .  S
Eu2576     O2580   2.369       .  S
Eu2577     O2579   2.342       .  S
Eu2577     O2592   2.315       .  S
Eu2578     O2579   2.367       .  S
Eu2578     O2590   2.362       .  S
Eu2578     O2592   2.349       .  S
Eu2578     O2580   2.336       .  S
H2589      O2590   0.973       .  S
H2591      O2592   0.960       .  S
O2593      C2604   1.306       .  A
O2593     Eu2629   2.528       .  S
O2594      C2605   1.292       .  A
O2594     Eu2628   2.483       .  S
O2595      C2606   1.291       .  A
O2595     Eu2601   2.476       .  S
O2596      C2607   1.307       .  A
O2596     Eu2601   2.527       .  S
O2597      C2607   1.278       .  A
O2597     Eu2631   2.387       .  S
O2598      C2606   1.296       .  A
O2598     Eu2630   2.471       .  S
O2599      C2605   1.300       .  A
O2599     Eu2601   2.490       .  S
O2600      C2604   1.281       .  A
O2600     Eu2601   2.407       .  S
Eu2601     O2611   2.363       .  S
Eu2601     O2603   2.371       .  S
Eu2601     O2602   2.324       .  S
Eu2601     O2609   2.356       .  S
O2602     Eu2631   2.368       .  S
O2602     Eu2628   2.341       .  S
O2603     Eu2629   2.327       .  S
O2603     Eu2630   2.345       .  S
H2608      O2609   0.965       .  S
O2609     Eu2630   2.325       .  S
O2609     Eu2628   2.375       .  S
H2610      O2611   0.962       .  S
O2611     Eu2629   2.364       .  S
O2611     Eu2631   2.365       .  S
O2612      C2635   1.308       .  A
O2612     Eu2628   2.536       .  S
O2613      C2636   1.293       .  A
O2613     Eu2629   2.490       .  S
O2614      C2637   1.311       .  A
O2614     Eu2630   2.556       .  S
O2615      C2638   1.294       .  A
O2615     Eu2631   2.491       .  S
O2616      C2639   1.308       .  A
O2616     Eu2631   2.534       .  S
O2617      C2640   1.296       .  A
O2617     Eu2630   2.505       .  S
O2618      C2641   1.310       .  A
O2618     Eu2632   2.548       .  S
O2619      C2642   1.297       .  A
O2619     Eu2632   2.508       .  S
O2620      C2641   1.278       .  A
O2620     Eu2630   2.381       .  S
O2621      C2642   1.297       .  A
O2621     Eu2631   2.484       .  S
O2622      C2637   1.277       .  A
O2622     Eu2628   2.385       .  S
O2623      C2640   1.295       .  A
O2623     Eu2629   2.468       .  S
O2624      C2639   1.277       .  A
O2624     Eu2629   2.382       .  S
O2625      C2638   1.295       .  A
O2625     Eu2628   2.472       .  S
O2626      C2635   1.277       .  A
O2626     Eu2632   2.381       .  S
O2627      C2636   1.297       .  A
O2627     Eu2632   2.479       .  S
Eu2628     O2646   2.319       .  S
Eu2628     O2634   2.350       .  S
Eu2629     O2633   2.368       .  S
Eu2629     O2644   2.359       .  S
Eu2630     O2644   2.382       .  S
Eu2630     O2634   2.351       .  S
Eu2631     O2633   2.323       .  S
Eu2631     O2646   2.350       .  S
Eu2632     O2633   2.341       .  S
Eu2632     O2644   2.331       .  S
Eu2632     O2646   2.376       .  S
Eu2632     O2634   2.354       .  S
H2643      O2644   0.961       .  S
H2645      O2646   0.963       .  S
O2648      C2659   1.293       .  A
O2649     Eu2655   2.556       .  S
O2650      C2661   1.295       .  A
O2650     Eu2655   2.502       .  S
O2651      C2661   1.300       .  A
O2651     Eu2685   2.497       .  S
O2652      C2660   1.279       .  A
O2652     Eu2684   2.401       .  S
O2653      C2659   1.298       .  A
O2653     Eu2655   2.484       .  S
O2654      C2658   1.278       .  A
O2654     Eu2655   2.388       .  S
Eu2655     O2665   2.384       .  S
Eu2655     O2656   2.347       .  S
O2656     Eu2685   2.334       .  S
O2657     Eu2684   2.358       .  S
H2662      O2663   0.963       .  S
O2663     Eu2684   2.381       .  S
O2663     Eu2682   2.361       .  S
H2664      O2665   0.964       .  S
O2665     Eu2685   2.354       .  S
O2666      C2689   1.308       .  A
O2666     Eu2682   2.536       .  S
O2667      C2690   1.295       .  A
O2667     Eu2683   2.499       .  S
O2668      C2691   1.292       .  A
O2668     Eu2684   2.482       .  S
O2669      C2692   1.307       .  A
O2669     Eu2685   2.528       .  S
O2670      C2693   1.293       .  A
O2671      C2694   1.309       .  A
O2672      C2695   1.292       .  A
O2672     Eu2686   2.483       .  S
O2673      C2696   1.308   1_565  A
O2673     Eu2686   2.533       .  S
O2674      C2695   1.300       .  A
O2676      C2691   1.302       .  A
O2676     Eu2682   2.504       .  S
O2677      C2694   1.278       .  A
O2677     Eu2683   2.389       .  S
O2678      C2693   1.300       .  A
O2679      C2692   1.282       .  A
O2680     Eu2686   2.399       .  S
O2681      C2690   1.296       .  A
O2681     Eu2686   2.474       .  S
Eu2682     O2700   2.367       .  S
Eu2682     O2688   2.330       .  S
Eu2683     O2687   2.339       .  S
Eu2683     O2698   2.382       .  S
Eu2684     O2688   2.348       .  S
Eu2686     O2687   2.324       .  S
Eu2686     O2698   2.359       .  S
H2697      O2698   0.963       .  S
H2699      O2700   0.963       .  S
C2701      C2702   1.405       .  A
C2701      C2706   1.394       .  A
C2701     Br2708   1.930       .  S
C2702      C2703   1.402       .  A
C2703      C2704   1.391       .  A
C2703     Br2710   1.933       .  S
C2704      C2705   1.406       .  A
C2704     Br2709   1.934       .  S
C2705      C2706   1.403       .  A
C2706     Br2707   1.933       .  S
C2711      C2712   1.403       .  A
C2711      C2716   1.397       .  A
C2711     Br2718   1.931       .  S
C2712      C2713   1.407       .  A
C2713     Br2720   1.935       .  S
C2714      C2715   1.406       .  A
C2714     Br2719   1.929       .  S
C2716     Br2717   1.932   1_554  S
C2721      C2722   1.405       .  A
C2721      C2726   1.400       .  A
C2721     Br2728   1.930       .  S
C2722      C2723   1.408       .  A
C2723      C2724   1.396       .  A
C2723     Br2730   1.933       .  S
C2724      C2725   1.403       .  A
C2724     Br2729   1.930       .  S
C2725      C2726   1.407       .  A
C2726     Br2727   1.932       .  S
C2731      C2736   1.396       .  A
C2731     Br2738   1.930       .  S
C2732      C2733   1.407       .  A
C2733     Br2740   1.933       .  S
C2734      C2735   1.407       .  A
C2734     Br2739   1.934   1_565  S
C2735      C2736   1.402       .  A
C2736     Br2737   1.931       .  S
C2741      C2742   1.408       .  A
C2741      C2746   1.401       .  A
C2741     Br2748   1.936       .  S
C2742      C2743   1.405       .  A
C2743      C2744   1.398       .  A
C2743     Br2750   1.907       .  S
C2744      C2745   1.407       .  A
C2744     Br2749   1.932       .  S
C2745      C2746   1.409       .  A
C2746     Br2747   1.904       .  S
C2751      C2752   1.404       .  A
C2751      C2756   1.398       .  A
C2751     Br2758   1.922       .  S
C2752      C2753   1.407       .  A
C2753      C2754   1.395       .  A
C2753     Br2760   1.932       .  S
C2754      C2755   1.406       .  A
C2754     Br2759   1.934       .  S
C2755      C2756   1.405       .  A
C2756     Br2757   1.930       .  S
C2761      C2762   1.408       .  A
C2761      C2766   1.398       .  A
C2762      C2763   1.402       .  A
C2763      C2764   1.395       .  A
C2764      C2765   1.406       .  A
C2765      C2766   1.401       .  A
C2766     Br2767   1.928       .  S
C2771      C2772   1.405       .  A
C2771      C2776   1.398       .  A
C2771     Br2778   1.924       .  S
C2772      C2773   1.408       .  A
C2773      C2774   1.396       .  A
C2773     Br2780   1.932       .  S
C2774      C2775   1.403       .  A
C2774     Br2779   1.931       .  S
C2775      C2776   1.406       .  A
C2776     Br2777   1.931       .  S
C2781      C2782   1.405       .  A
C2781     Br2788   1.932       .  S
C2783      C2784   1.396       .  A
C2783     Br2790   1.930   1_554  S
C2784      C2785   1.404       .  A
C2784     Br2789   1.931       .  S
C2785      C2786   1.406       .  A
C2791      C2792   1.408       .  A
C2791      C2796   1.399       .  A
C2791     Br2798   1.932       .  S
C2792      C2793   1.402       .  A
C2793      C2794   1.397       .  A
C2793     Br2800   1.929       .  S
C2794      C2795   1.409       .  A
C2794     Br2799   1.935       .  S
C2795      C2796   1.406       .  A
C2796     Br2797   1.931       .  S
C2801      C2802   1.404       .  A
C2801      C2806   1.397       .  A
C2802      C2803   1.408       .  A
C2803      C2804   1.395       .  A
C2803     Br2810   1.932       .  S
C2804      C2805   1.402       .  A
C2804     Br2809   1.933       .  S
C2805      C2806   1.406       .  A
C2811      C2812   1.405       .  A
C2811      C2816   1.397       .  A
C2811     Br2818   1.918       .  S
C2812      C2813   1.410       .  A
C2813      C2814   1.398       .  A
C2813     Br2820   1.934       .  S
C2814      C2815   1.408       .  A
C2814     Br2819   1.918       .  S
C2815      C2816   1.411       .  A
C2816     Br2817   1.934       .  S
C2821      C2822   1.403       .  A
C2821      C2826   1.397       .  A
C2821     Br2828   1.929       .  S
C2822      C2823   1.410       .  A
C2823      C2824   1.395       .  A
C2824      C2825   1.399       .  A
C2824     Br2829   1.931       .  S
C2825      C2826   1.407       .  A
C2826     Br2827   1.933       .  S
C2831      C2832   1.405       .  A
C2831      C2836   1.398       .  A
C2831     Br2838   1.930       .  S
C2832      C2833   1.408       .  A
C2833      C2834   1.396       .  A
C2833     Br2840   1.933       .  S
C2834      C2835   1.402       .  A
C2834     Br2839   1.928       .  S
C2835      C2836   1.407       .  A
C2836     Br2837   1.933       .  S
C2841      C2842   1.403       .  A
C2841      C2846   1.394       .  A
C2841     Br2848   1.934       .  S
C2842      C2843   1.406       .  A
C2843      C2844   1.398       .  A
C2843     Br2850   1.931   1_554  S
C2844      C2845   1.406       .  A
C2844     Br2849   1.929       .  S
C2845      C2846   1.407       .  A
C2846     Br2847   1.931       .  S
C2851      C2856   1.397       .  A
C2853      C2854   1.397       .  A
C2853     Br2860   1.934       .  S
C2854      C2855   1.407       .  A
C2854     Br2859   1.931       .  S
C2855      C2856   1.406       .  A
C2856     Br2857   1.932       .  S
C2861      C2862   1.412       .  A
C2861      C2866   1.396       .  A
C2861     Br2868   1.932       .  S
C2862      C2863   1.405       .  A
C2863      C2864   1.394       .  A
C2863     Br2870   1.915       .  S
C2864      C2865   1.406       .  A
C2864     Br2869   1.933       .  S
C2865      C2866   1.405       .  A
C2866     Br2867   1.922       .  S
C2871      C2872   1.400       .  A
C2871      C2876   1.390       .  A
C2871     Br2878   1.933       .  S
C2872      C2873   1.405       .  A
C2873      C2874   1.391       .  A
C2874      C2875   1.401       .  A
C2874     Br2879   1.930       .  S
C2875      C2876   1.406       .  A
