geometry optimzed in LAMMPS
_audit_creation_date              2020-11-30 
_audit_creation_method            'lammps2cif' 
_symmetry_space_group_name_H-M    'P1' 
_symmetry_Int_Tables_number       1 
_symmetry_cell_setting            triclinic 
loop_ 
_symmetry_equiv_pos_as_xyz 
  x,y,z 
_cell_length_a                    34.68995574 
_cell_length_b                    34.787547018314335 
_cell_length_c                    34.79297750264903 
_cell_angle_alpha                 90.09337934575622 
_cell_angle_beta                  90.08633769610195 
_cell_angle_gamma                 90.25546490298676 
loop_ 
_atom_site_label 
_atom_site_type_symbol 
_atom_site_fract_x 
_atom_site_fract_y 
_atom_site_fract_z 
_atom_site_charge 
O1          O  0.79370328  0.67886004  0.85621833    -0.86300
C2          C  0.80093025  0.72005907  0.63715998     1.13700
O3          O  0.74198795  0.71618827  0.79418865    -1.34100
O4          O  0.86237021  0.74757143  0.71422026    -0.87800
O5          O  0.73912291  0.70099616  0.88232538    -0.88500
O6          O  0.75595632  0.79488761  0.84267815    -0.77300
O7          O  0.82479413  0.70920112  0.78097334    -0.99400
C8          C  0.78072171  0.84823251  0.74770329     1.23800
O9          O  0.70891880  0.78182429  0.76240440    -1.34300
Mn10       Mn  0.71785538  0.72513291  0.73722091     1.82100
O11         O  0.78858940  0.82944037  0.77740993    -0.76400
O12         O  0.83667194  0.80229103  0.69243289    -0.85800
C13         C  0.70113327  0.76671567  0.66443944     1.14800
C14         C  0.86546935  0.78184886  0.70203588     1.09600
O15         O  0.66235029  0.70208521  0.74662564    -0.77300
O16         O  0.77458356  0.74997511  0.72908451    -1.31000
O17         O  0.65928483  0.72820813  0.80155950    -0.96500
C18         C  0.68128684  0.87220241  0.79572895     1.08300
Mn19       Mn  0.77719425  0.79291527  0.68570167     1.48600
O20         O  0.67059817  0.84304343  0.81506606    -0.85700
Mn21       Mn  0.69947190  0.71230068  0.83800714     1.49600
O22         O  0.74458562  0.62809408  0.80655589    -0.89600
C23         C  0.84084429  0.73386404  0.80010845     1.21500
C24         C  0.71010684  0.62505150  0.81852189     1.13500
Mn25       Mn  0.76606785  0.77337045  0.78651843     1.81000
O26         O  0.72090440  0.79113769  0.68007152    -0.94700
Mn27       Mn  0.78445550  0.67249242  0.79676211     1.49300
C28         C  0.77342665  0.68844680  0.88517401     1.10100
Mn29       Mn  0.70569262  0.82665343  0.72114933     1.49900
C30         C  0.61784978  0.80839042  0.73107576     1.13000
O31         O  0.70112420  0.76798719  0.84497318    -1.00500
O32         O  0.78812029  0.75414281  0.64059702    -0.90200
C33         C  0.72600569  0.78676313  0.86121746     1.24200
O34         O  0.76154881  0.83236402  0.72300953    -1.00900
O35         O  0.81073925  0.69938450  0.66572312    -0.88300
O36         O  0.64660236  0.81996569  0.71165633    -0.87900
O37         O  0.69020118  0.65349851  0.82977601    -0.88000
Mn38       Mn  0.81833557  0.70775596  0.72508625     1.47900
O39         O  0.69533220  0.73565487  0.68174401    -0.76400
C40         C  0.64355938  0.70942007  0.77641787     1.17300
O41         O  0.82204399  0.76336976  0.80869514    -0.75200
O42         O  0.72766161  0.66945392  0.71418157    -0.74800
Mn43       Mn  0.66468394  0.78392150  0.80461576     1.51100
O44         O  0.69499045  0.86987077  0.76190530    -0.87100
O45         O  0.78224161  0.66702207  0.74098834    -0.94700
O46         O  0.62066755  0.79459635  0.76476027    -0.89700
C47         C  0.75735619  0.65072109  0.72233075     1.15100
O48         O  0.84348823  0.68126414  0.20789407    -0.86300
C49         C  0.62441810  0.71952202  0.20227151     1.13700
O50         O  0.78237627  0.71846710  0.26026624    -1.34100
O51         O  0.70221362  0.74899691  0.14066151    -0.87800
O52         O  0.87017713  0.70497200  0.26159770    -0.88500
O53         O  0.82984260  0.79753840  0.24514271    -0.77300
O54         O  0.76849138  0.71066375  0.17797696    -0.99400
C55         C  0.73420883  0.84960508  0.22181669     1.23800
O56         O  0.75043437  0.78398716  0.29330248    -1.34300
Mn57       Mn  0.72584516  0.72694914  0.28514465     1.82100
O58         O  0.76377554  0.83066305  0.21375104    -0.76400
O59         O  0.67867718  0.80294529  0.16653501    -0.85800
C60         C  0.65168056  0.76616092  0.29997139     1.14800
C61         C  0.68950762  0.78306994  0.13782448     1.09600
O62         O  0.73665771  0.70475615  0.34073396    -0.77300
O63         O  0.71646099  0.75112178  0.22826732    -1.31000
O64         O  0.79152332  0.73165327  0.34308722    -0.96500
C65         C  0.78208435  0.87552825  0.31925830     1.08300
Mn66       Mn  0.67245261  0.79344479  0.22563206     1.48600
O67         O  0.80276667  0.84699712  0.32921252    -0.85700
Mn68       Mn  0.82693636  0.71552138  0.30206381     1.49600
O69         O  0.79485357  0.63056119  0.25738879    -0.89600
C70         C  0.78792770  0.73494211  0.16192263     1.21500
C71         C  0.80760428  0.62770698  0.29149309     1.13500
Mn72       Mn  0.77380840  0.77522136  0.23609126     1.81000
O73         O  0.66777531  0.79099497  0.28128304    -0.94700
Mn74       Mn  0.78438910  0.67439994  0.21788740     1.49300
C75         C  0.87249594  0.69249780  0.22734078     1.10100
Mn76       Mn  0.70802780  0.82766204  0.29695158     1.49900
C77         C  0.71992854  0.80974911  0.38463705     1.13000
O78         O  0.83347280  0.77131539  0.29989525    -1.00500
O79         O  0.62738204  0.75363094  0.21533203    -0.90200
C80         C  0.84912457  0.78980645  0.27458014     1.24200
O81         O  0.70926209  0.83409763  0.24108608    -1.00900
O82         O  0.65331527  0.69989284  0.19144414    -0.88300
O83         O  0.69948305  0.82015352  0.35612109    -0.87900
O84         O  0.81916089  0.65635124  0.31129976    -0.88000
Mn85       Mn  0.71265124  0.70900212  0.18430336     1.47900
O86         O  0.67037341  0.73656281  0.30810355    -0.76400
C87         C  0.76675143  0.71271138  0.35918780     1.17300
O88         O  0.79598322  0.76497632  0.18025771    -0.75200
O89         O  0.70307283  0.67107457  0.27556364    -0.74800
Mn90       Mn  0.79357679  0.78750937  0.33670750     1.51100
O91         O  0.74756191  0.87204871  0.30752165    -0.87100
O92         O  0.72852017  0.66856828  0.22040698    -0.94700
O93         O  0.75442149  0.79798942  0.38141799    -0.89700
C94         C  0.71008688  0.65249540  0.24547273     1.15100
O95         O  0.66413989  0.19439447  0.85448418    -0.86300
C96         C  0.70212815  0.18650715  0.63455185     1.13700
O97         O  0.69973514  0.24710936  0.79208108    -1.34100
O98         O  0.73200598  0.12692151  0.71241268    -0.87800
O99         O  0.68701302  0.24888249  0.88025636    -0.88500
O100        O  0.77993722  0.23487217  0.83889033    -0.77300
O101        O  0.69360468  0.16445951  0.77881726    -0.99400
C102        C  0.83202655  0.21335129  0.74287934     1.23800
O103        O  0.76413195  0.28178499  0.75916585    -1.34300
Mn104      Mn  0.70725778  0.27181292  0.73525723     1.82100
O105        O  0.81453176  0.20441675  0.77313664    -0.76400
O106        O  0.78638329  0.15414594  0.69083972    -0.85800
C107        C  0.74543950  0.28646357  0.66015599     1.14800
C108        C  0.76674625  0.12484579  0.70090956     1.09600
O109        O  0.68394363  0.32711196  0.74584092    -0.77300
O110        O  0.73254707  0.21532555  0.72624011    -1.31000
O111        O  0.71049259  0.32998580  0.80073417    -0.96500
C112        C  0.85532933  0.31055578  0.78906695     1.08300
Mn113      Mn  0.77493408  0.21280457  0.68250079     1.48600
O114        O  0.82673888  0.31949545  0.81021380    -0.85700
Mn115      Mn  0.69610006  0.28904346  0.83660548     1.49600
O116        O  0.61167753  0.24247375  0.80546787    -0.89600
C117        C  0.71887777  0.14934414  0.79778617     1.21500
C118        C  0.60826267  0.27654282  0.81818732     1.13500
Mn119      Mn  0.75737693  0.22453852  0.78313222     1.81000
O120        O  0.77090717  0.26846185  0.67594381    -0.94700
Mn121      Mn  0.65641009  0.20367948  0.79500454     1.49300
C122        C  0.67511831  0.21446267  0.88322506     1.10100
Mn123      Mn  0.80697740  0.28632226  0.71602469     1.49900
C124        C  0.78785297  0.37350575  0.72793186     1.13000
O125        O  0.75204324  0.28871551  0.84240193    -1.00500
O126        O  0.73626263  0.19947396  0.63794838    -0.90200
C127        C  0.77159070  0.26429049  0.85797152     1.24200
O128        O  0.81397407  0.23105892  0.71886114    -1.00900
O129        O  0.68155779  0.17668185  0.66330105    -0.88300
O130        O  0.79781681  0.34520581  0.70693244    -0.87900
O131        O  0.63662120  0.29676647  0.82979699    -0.88000
Mn132      Mn  0.69108643  0.17018070  0.72292393     1.47900
O133        O  0.71601083  0.29441732  0.67940712    -0.76400
C134        C  0.69020622  0.34503750  0.77657475     1.17300
O135        O  0.74860986  0.16863027  0.80526198    -0.75200
O136        O  0.65141185  0.26048317  0.71321444    -0.74800
Mn137      Mn  0.76687380  0.32540088  0.80191538     1.51100
O138        O  0.85171878  0.29871859  0.75466991    -0.87100
O139        O  0.64950256  0.20533704  0.73904359    -0.94700
O140        O  0.77644785  0.36990227  0.76247852    -0.89700
C141        C  0.63317161  0.23010395  0.72040180     1.15100
O142        O  0.18805963  0.33429535  0.84123744    -0.86300
C143        C  0.16474878  0.26995953  0.63057696     1.13700
O144        O  0.23458846  0.28731303  0.78188107    -1.34100
O145        O  0.10830281  0.25061581  0.71399481    -0.87800
O146        O  0.24446152  0.31387475  0.86499961    -0.88500
O147        O  0.22048001  0.21512129  0.84089672    -0.77300
O148        O  0.15091581  0.29614731  0.77285187    -0.99400
C149        C  0.19058351  0.15342762  0.74799307     1.23800
O150        O  0.26405992  0.21841240  0.75446023    -1.34300
Mn151      Mn  0.25552600  0.27319328  0.72481479     1.82100
O152        O  0.18506593  0.17425123  0.77712547    -0.76400
O153        O  0.13295914  0.19451525  0.69441296    -0.85800
C154        C  0.26489497  0.22704201  0.65190422     1.14800
C155        C  0.10473546  0.21544084  0.70464356     1.09600
O156        O  0.31317643  0.29420010  0.73030776    -0.77300
O157        O  0.19754855  0.24912184  0.72216272    -1.31000
O158        O  0.31672641  0.27108562  0.78651289    -0.96500
C159        C  0.29093463  0.12876509  0.79048699     1.08300
Mn160      Mn  0.19184443  0.20262618  0.68270950     1.48600
O161        O  0.30008362  0.15819381  0.81058069    -0.85700
Mn162      Mn  0.28005159  0.29347785  0.82221379     1.49600
O163        O  0.23579305  0.37610674  0.78510872    -0.89600
C164        C  0.13562619  0.27414340  0.79539531     1.21500
C165        C  0.27117997  0.37867162  0.79473714     1.13500
Mn166      Mn  0.20865911  0.23065459  0.78130709     1.81000
O167        O  0.24731151  0.20388814  0.67178367    -0.94700
Mn168      Mn  0.19351119  0.33280851  0.78159871     1.49300
C169        C  0.21161390  0.32937143  0.86871831     1.10100
Mn170      Mn  0.26543543  0.17186071  0.71479158     1.49900
C171        C  0.35365417  0.18834973  0.72182489     1.13000
O172        O  0.27652165  0.23863132  0.83741231    -1.00500
O173        O  0.17875505  0.23708222  0.63655420    -0.90200
C174        C  0.25208815  0.22286461  0.85737428     1.24200
O175        O  0.20947223  0.16644201  0.72149023    -1.00900
O176        O  0.15512319  0.29331109  0.65696507    -0.88300
O177        O  0.32436686  0.17879399  0.70174217    -0.87900
O178        O  0.29124928  0.35020765  0.80575721    -0.88000
Mn179      Mn  0.15314705  0.29107047  0.71704340     1.47900
O180        O  0.27326682  0.25874200  0.66733698    -0.76400
C181        C  0.33287956  0.28701782  0.75984093     1.17300
O182        O  0.15407225  0.24471889  0.80523133    -0.75200
O183        O  0.24525975  0.32721843  0.69782199    -0.74800
Mn184      Mn  0.30918620  0.21652983  0.79589039     1.51100
O185        O  0.27896193  0.13101465  0.75610912    -0.87100
O186        O  0.19114076  0.33221991  0.72532879    -0.94700
O187        O  0.35113676  0.20056147  0.75608922    -0.89700
C188        C  0.21455282  0.34551949  0.70300254     1.15100
O189        O  0.31292724  0.79921929  0.85130032    -0.86300
C190        C  0.27604682  0.81273334  0.63218776     1.13700
O191        O  0.27529670  0.75042383  0.78686961    -1.34100
O192        O  0.24728097  0.87318197  0.71111480    -0.87800
O193        O  0.28717575  0.74528932  0.87549836    -0.88500
O194        O  0.19543001  0.76409612  0.83284878    -0.77300
O195        O  0.28426108  0.83271934  0.77719849    -0.99400
C196        C  0.14384282  0.78965132  0.73825407     1.23800
O197        O  0.20985066  0.71857483  0.75215662    -1.34300
Mn198      Mn  0.26738978  0.72767182  0.72898401     1.82100
O199        O  0.16260313  0.79753391  0.76809829    -0.76400
O200        O  0.19254304  0.84836209  0.68715865    -0.85800
C201        C  0.22796138  0.71497211  0.65397315     1.14800
C202        C  0.21300508  0.87669968  0.69864912     1.09600
O203        O  0.28959712  0.67170380  0.73740478    -0.77300
O204        O  0.24343042  0.78479981  0.72187058    -1.31000
O205        O  0.26204020  0.66878516  0.79135762    -0.96500
C206        C  0.11849687  0.69029472  0.78189851     1.08300
Mn207      Mn  0.20124588  0.78915903  0.67789472     1.48600
O208        O  0.14712097  0.67866339  0.80141048    -0.85700
Mn209      Mn  0.27702884  0.70716990  0.82976894     1.49600
O210        O  0.36355885  0.75152062  0.80145407    -0.89600
C211        C  0.25991738  0.84783324  0.79714065     1.21500
C212        C  0.36572119  0.71732621  0.81403548     1.13500
Mn213      Mn  0.21850691  0.77513973  0.77796909     1.81000
O214        O  0.20301156  0.73349263  0.67005531    -0.94700
Mn215      Mn  0.31996177  0.79185962  0.79187852     1.49300
C216        C  0.30131146  0.77887522  0.87941415     1.10100
Mn217      Mn  0.16618335  0.71618903  0.70934261     1.49900
C218        C  0.18446926  0.62784643  0.71716279     1.13000
O219        O  0.22066466  0.70863596  0.83436814    -1.00500
O220        O  0.24150764  0.80072634  0.63466719    -0.90200
C221        C  0.20082293  0.73289634  0.84986369     1.24200
O222        O  0.16021958  0.77183818  0.71302619    -1.00900
O223        O  0.29607242  0.82282922  0.66129316    -0.88300
O224        O  0.17334020  0.65714574  0.69830369    -0.87900
O225        O  0.33642830  0.69773640  0.82419640    -0.88000
Mn226      Mn  0.28629322  0.82850188  0.72085383     1.47900
O227        O  0.25774318  0.70679905  0.67265714    -0.76400
C228        C  0.28116092  0.65286871  0.76686427     1.17300
O229        O  0.22857665  0.83040583  0.80197791    -0.75200
O230        O  0.32378404  0.73797941  0.70750581    -0.74800
Mn231      Mn  0.20635851  0.67318301  0.79273562     1.51100
O232        O  0.12155870  0.70429811  0.74831443    -0.87100
O233        O  0.32563991  0.79136432  0.73627429    -0.94700
O234        O  0.19721547  0.62986638  0.75141101    -0.89700
C235        C  0.34225408  0.76756136  0.71696199     1.15100
O236        O  0.64975649  0.17800947  0.30612721    -0.86300
C237        C  0.86544084  0.22693147  0.32210147     1.13700
O238        O  0.71214237  0.21840501  0.25696521    -1.34100
O239        O  0.78505589  0.25125342  0.38025215    -0.87800
O240        O  0.62603481  0.20186008  0.25127518    -0.88500
O241        O  0.65865981  0.29398412  0.27239673    -0.77300
O242        O  0.72200596  0.20953554  0.34041647    -0.99400
C243        C  0.75450421  0.35129068  0.29811208     1.23800
O244        O  0.74302740  0.28546269  0.22627209    -1.34300
Mn245      Mn  0.76984973  0.22939667  0.23448807     1.82100
O246        O  0.72501228  0.33136741  0.30542367    -0.76400
O247        O  0.80703192  0.30667480  0.35568232    -0.85800
C248        C  0.84550014  0.27244574  0.22307553     1.14800
C249        C  0.79619553  0.28593415  0.38389617     1.09600
O250        O  0.76131157  0.20826718  0.17700110    -0.77300
O251        O  0.77505489  0.25338841  0.29195348    -1.31000
O252        O  0.70566091  0.23320394  0.17462916    -0.96500
C253        C  0.70918633  0.37599211  0.20194519     1.08300
Mn254      Mn  0.81712308  0.29796504  0.29653655     1.48600
O255        O  0.68883967  0.34714907  0.19173948    -0.85700
Mn256      Mn  0.66942156  0.21456521  0.21326959     1.49600
O257        O  0.70172879  0.13011265  0.25765339    -0.89600
C258        C  0.70102070  0.23287832  0.35585316     1.21500
C259        C  0.69029521  0.12713247  0.22303947     1.13500
Mn260      Mn  0.71705997  0.27512740  0.28246442     1.81000
O261        O  0.82690451  0.29646207  0.24081427    -0.94700
Mn262      Mn  0.70939909  0.17350554  0.29868974     1.49300
C263        C  0.62207011  0.18913868  0.28499033     1.10100
Mn264      Mn  0.78466291  0.33050746  0.22359531     1.49900
C265        C  0.77424536  0.31272540  0.13579025     1.13000
O266        O  0.65944944  0.26992938  0.21668753    -1.00500
O267        O  0.86120004  0.26042913  0.30877505    -0.90200
C268        C  0.64116401  0.28688379  0.24142736     1.24200
O269        O  0.78016322  0.33652627  0.27934838    -1.00900
O270        O  0.83787113  0.20494831  0.33208862    -0.88300
O271        O  0.79520374  0.32274852  0.16430075    -0.87900
O272        O  0.67949020  0.15575578  0.20294495    -0.88000
Mn273      Mn  0.77810267  0.21094458  0.33613390     1.47900
O274        O  0.82826950  0.24130632  0.21534434    -0.76400
C275        C  0.73108166  0.21566335  0.15813858     1.17300
O276        O  0.69337002  0.26301233  0.33755892    -0.75200
O277        O  0.79389996  0.17404303  0.24520063    -0.74800
Mn278      Mn  0.70040709  0.28857482  0.18230207     1.51100
O279        O  0.74412821  0.37331031  0.21239742    -0.87100
O280        O  0.76565398  0.16978579  0.29906112    -0.94700
O281        O  0.73958961  0.30162801  0.13918591    -0.89700
C282        C  0.78636810  0.15498405  0.27503294     1.15100
O283        O  0.19164906  0.69330127  0.15787214    -0.86300
C284        C  0.18470632  0.72229040  0.37716681     1.13700
O285        O  0.24595457  0.72104026  0.22219411    -1.34100
O286        O  0.12768487  0.75689233  0.30138814    -0.87800
O287        O  0.24895659  0.71093990  0.13374316    -0.88500
O288        O  0.24098137  0.80316050  0.17757624    -0.77300
O289        O  0.16324898  0.72059277  0.23432643    -0.99400
C290        C  0.21944547  0.85630271  0.27454118     1.23800
O291        O  0.28405625  0.78135940  0.25845439    -1.34300
Mn292      Mn  0.26980245  0.72412373  0.27983604     1.82100
O293        O  0.21140079  0.83943389  0.24335780    -0.76400
O294        O  0.15573082  0.81107295  0.32220476    -0.85800
C295        C  0.28334667  0.76007536  0.35674647     1.14800
C296        C  0.12619922  0.79178845  0.31187228     1.09600
O297        O  0.32434874  0.69737323  0.27002411    -0.77300
O298        O  0.21502738  0.75381579  0.28791363    -1.31000
O299        O  0.32963495  0.72582184  0.21678726    -0.96500
C300        C  0.32563201  0.86850171  0.23404923     1.08300
Mn301      Mn  0.21339170  0.79593692  0.33229228     1.48600
O302        O  0.33090609  0.84061517  0.21129176    -0.85700
Mn303      Mn  0.28878857  0.71597711  0.17882076     1.49600
O304        O  0.23382719  0.63564484  0.20354416    -0.89600
C305        C  0.14900423  0.74690010  0.21631693     1.21500
C306        C  0.26739729  0.62971801  0.19092736     1.13500
Mn307      Mn  0.22707285  0.77998648  0.23232983     1.81000
O308        O  0.26790095  0.78674154  0.34020637    -0.94700
Mn309      Mn  0.19924375  0.68169097  0.21659670     1.49300
C310        C  0.21354887  0.70199930  0.12981513     1.10100
Mn311      Mn  0.29030873  0.82238185  0.30321027     1.49900
C312        C  0.37578414  0.79572579  0.29499443     1.13000
O313        O  0.29344887  0.77211949  0.17574079    -1.00500
O314        O  0.19709029  0.75658196  0.37462161    -0.90200
C315        C  0.27173987  0.79486836  0.16050927     1.24200
O316        O  0.23541064  0.83680915  0.29908742    -1.00900
O317        O  0.17470911  0.70223373  0.34818350    -0.88300
O318        O  0.34721899  0.80679238  0.31494363    -0.87900
O319        O  0.29141931  0.65606741  0.18242992    -0.88000
Mn320      Mn  0.16813260  0.71445802  0.28960554     1.47900
O321        O  0.29028186  0.73017994  0.33749375    -0.76400
C322        C  0.34393464  0.70465885  0.24052383     1.17300
O323        O  0.17006605  0.77560208  0.20911783    -0.75200
O324        O  0.25493209  0.66654016  0.29773918    -0.74800
Mn325      Mn  0.32994120  0.78152167  0.21784687     1.51100
O326        O  0.31052105  0.86528263  0.26713398    -0.87100
O327        O  0.19988998  0.67079474  0.27200416    -0.94700
O328        O  0.37320226  0.78588556  0.25983903    -0.89700
C329        C  0.22305937  0.65100986  0.28955822     1.15100
C330        C  0.52839447  0.14335998  0.31093596     0.82100
N331        N  0.50207628  0.16945861  0.29855736    -0.76200
C332        C  0.46444201  0.15940372  0.29610930     0.84500
N333        N  0.45311022  0.12324809  0.30542712    -0.76200
C334        C  0.47939668  0.09695145  0.31635577     0.84600
N335        N  0.51690780  0.10723723  0.31986770    -0.77900
C336        C  0.52825092  0.30321502  0.23559624     0.82100
N337        N  0.49373524  0.29458260  0.25361803    -0.76200
C338        C  0.45896970  0.30475887  0.23695338     0.84500
N339        N  0.45956545  0.32284691  0.20232003    -0.76200
C340        C  0.49323973  0.33076619  0.18427505     0.84600
N341        N  0.52710866  0.32123176  0.20098838    -0.77900
C342        C  0.21407657  0.46918468  0.30459194     0.82100
N343        N  0.23085826  0.50399941  0.29508930    -0.76200
C344        C  0.21282534  0.53822821  0.30398572     0.84500
N345        N  0.17791708  0.53681470  0.32173656    -0.76200
C346        C  0.16102186  0.50273854  0.33062582     0.84600
N347        N  0.17919818  0.46933665  0.32238425    -0.77900
C348        C  0.28384173  0.53850132  0.13601498     0.82100
N349        N  0.29729983  0.52812768  0.10104008    -0.76200
C350        C  0.29841937  0.49059521  0.09075452     0.84500
N351        N  0.28705605  0.46331962  0.11603163    -0.76200
C352        C  0.27266728  0.47371779  0.15075747     0.84600
N353        N  0.27108722  0.51119205  0.16076070    -0.77900
C354        C  0.80099563  0.48226372  0.71879014     0.82100
N355        N  0.83562854  0.48235031  0.70079298    -0.76200
C356        C  0.85347232  0.51577318  0.69215008     0.84500
N357        N  0.83633131  0.54961732  0.70053453    -0.76200
C358        C  0.80136944  0.55016986  0.71798540     0.84600
N359        N  0.78409429  0.51636528  0.72827723    -0.77900
C360        C  0.69106644  0.51635985  0.81550104     0.82100
N361        N  0.67157322  0.51213475  0.84901135    -0.76200
C362        C  0.65767525  0.47745913  0.85963913     0.84500
N363        N  0.66226475  0.44669886  0.83624648    -0.76200
C364        C  0.68164614  0.45025529  0.80244343     0.84600
N365        N  0.69677157  0.48514183  0.79243366    -0.77900
C366        C  0.46378684  0.18275526  0.71085158     0.82100
N367        N  0.46644489  0.15009407  0.68987971    -0.76200
C368        C  0.50112711  0.13530753  0.68076762     0.84500
N369        N  0.53386995  0.15367335  0.69160637    -0.76200
C370        C  0.53191982  0.18662906  0.71246691     0.84600
N371        N  0.49674593  0.20070501  0.72307777    -0.77900
C372        C  0.43137152  0.29289750  0.80700018     0.82100
N373        N  0.46703607  0.28155516  0.79512352    -0.76200
C374        C  0.49873799  0.29076902  0.81653750     0.84500
N375        N  0.49423877  0.30954346  0.85040975    -0.76200
C376        C  0.45882619  0.31941194  0.86295483     0.84600
N377        N  0.42742563  0.31127368  0.84124619    -0.77900
N378        N  0.45026086  0.54313643  0.95633556    -0.34800
N379        N  0.43599896  0.46011416  0.95302954    -0.55300
N380        N  0.51887578  0.44429369  0.95679921    -0.34700
N381        N  0.53316761  0.52780534  0.95614693    -0.55300
C382        C  0.41219315  0.54316247  0.94779270     0.28800
C383        C  0.46368788  0.57907668  0.94976957     0.28800
C384        C  0.50530019  0.40891305  0.94742021     0.28800
C385        C  0.55672573  0.44491989  0.94726216     0.28800
C386        C  0.39916990  0.47236440  0.95201183     0.37500
C387        C  0.43443133  0.42136093  0.95300908     0.37500
C388        C  0.53467221  0.56658730  0.95585908     0.37500
C389        C  0.56996827  0.51549267  0.95486128     0.37500
C390        C  0.40080995  0.58013519  0.93833396    -0.20000
C391        C  0.43318265  0.60276813  0.93966252    -0.20000
C392        C  0.53557749  0.38604515  0.93505890    -0.20000
C393        C  0.56786489  0.40871161  0.93487596    -0.20000
C394        C  0.37406043  0.44123341  0.95205461    -0.21100
C395        C  0.39639944  0.40893307  0.95272657    -0.21100
C396        C  0.57271425  0.57899638  0.95538830    -0.21100
C397        C  0.59505523  0.54665747  0.95480830    -0.21100
C398        C  0.38779732  0.51058161  0.94535236    -0.16400
C399        C  0.50283724  0.59070938  0.94904998    -0.16400
C400        C  0.58100723  0.47764115  0.94567349    -0.16400
C401        C  0.46613630  0.39727666  0.94601475    -0.16400
H402        H  0.37232733  0.58963116  0.93000399     0.16500
H403        H  0.43429927  0.63301629  0.93247793     0.16500
H404        H  0.53431784  0.35648489  0.92536292     0.16500
H405        H  0.59608118  0.39989026  0.92506980     0.16500
H406        H  0.34291026  0.44180295  0.95026791     0.14800
H407        H  0.38594560  0.37960082  0.95126589     0.14800
H408        H  0.58317270  0.60830251  0.95358256     0.14800
H409        H  0.62614705  0.54608326  0.95226421     0.14800
H410        H  0.46641675  0.51962124  0.96432411     0.28000
H411        H  0.50288552  0.46715493  0.96701418     0.28000
N412        N  0.53741157  0.45760387  0.07184011    -0.34800
N413        N  0.45391647  0.44944379  0.06234138    -0.55300
N414        N  0.44676820  0.53052595  0.04539640    -0.34700
N415        N  0.52938320  0.53907824  0.05843024    -0.55300
C416        C  0.53151085  0.42417220  0.09098977     0.28800
C417        C  0.57332889  0.47008648  0.08092956     0.28800
C418        C  0.40926782  0.51999114  0.04644911     0.28800
C419        C  0.44851533  0.56805648  0.05580326     0.28800
C420        C  0.46229441  0.41343034  0.07396375     0.37500
C421        C  0.41688385  0.44887516  0.05040293     0.37500
C422        C  0.56813487  0.53801152  0.05836282     0.37500
C423        C  0.51946818  0.57623526  0.05461004     0.37500
C424        C  0.56488534  0.41418908  0.11049921    -0.20000
C425        C  0.59129731  0.44284960  0.10390769    -0.20000
C426        C  0.38687090  0.55195892  0.05488970    -0.20000
C427        C  0.41167752  0.58199017  0.06155138    -0.20000
C428        C  0.43042601  0.38971768  0.06950010    -0.21100
C429        C  0.40180429  0.41200359  0.05399902    -0.21100
C430        C  0.58298205  0.57485040  0.05340809    -0.21100
C431        C  0.55201210  0.59916493  0.05170283    -0.21100
C432        C  0.49670032  0.40280383  0.09260587    -0.16400
C433        C  0.58956801  0.50644553  0.07164365    -0.16400
C434        C  0.48228454  0.58997171  0.06164954    -0.16400
C435        C  0.39475541  0.48201602  0.04284613    -0.16400
H436        H  0.56961691  0.38912913  0.12826605     0.16500
H437        H  0.62001876  0.44405541  0.11603246     0.16500
H438        H  0.35591107  0.55342774  0.05760357     0.16500
H439        H  0.40351642  0.61081288  0.06990694     0.16500
H440        H  0.42788372  0.35972688  0.07738783     0.14800
H441        H  0.37257402  0.40265025  0.04813980     0.14800
H442        H  0.61296241  0.58359783  0.05402162     0.14800
H443        H  0.55318590  0.63023096  0.05030666     0.14800
H444        H  0.51793236  0.47160566  0.05422184     0.28000
H445        H  0.46962687  0.51267856  0.03863870     0.28000
C446        C  0.18180086  0.51854770  0.69785759     0.82100
N447        N  0.20355561  0.48645190  0.70364856    -0.76200
C448        C  0.19144408  0.45157717  0.68994868     0.84500
N449        N  0.15672271  0.44893799  0.67177230    -0.76200
C450        C  0.13454644  0.48061567  0.66701438     0.84600
N451        N  0.14732585  0.51523819  0.67959075    -0.77900
C452        C  0.28377403  0.48601586  0.80859702     0.82100
N453        N  0.27458719  0.52049735  0.79268893    -0.76200
C454        C  0.28419498  0.55359422  0.81132885     0.84500
N455        N  0.30083370  0.55216603  0.84653557    -0.76200
C456        C  0.30926424  0.51795283  0.86268977     0.84600
N457        N  0.30118822  0.48495991  0.84360448    -0.77900
C458        C  0.50894692  0.81786208  0.71835878     0.82100
N459        N  0.50769166  0.85175368  0.69909050    -0.76200
C460        C  0.47352503  0.86735059  0.68902186     0.84500
N461        N  0.44029031  0.84863604  0.69723851    -0.76200
C462        C  0.44115355  0.81451913  0.71606057     0.84600
N463        N  0.47546601  0.79955977  0.72761153    -0.77900
C464        C  0.54296024  0.70286728  0.81797732     0.82100
N465        N  0.54458900  0.68201931  0.85082440    -0.76200
C466        C  0.51174248  0.67166540  0.86899118     0.84500
N467        N  0.47714111  0.68160950  0.85408902    -0.76200
C468        C  0.47507449  0.70279352  0.82138957     0.84600
N469        N  0.50822369  0.71421397  0.80375726    -0.77900
C470        C  0.80991791  0.70642014  0.45988053     0.82100
N471        N  0.84180648  0.68399258  0.45892498    -0.76200
C472        C  0.85962136  0.67381105  0.49198969     0.84500
N473        N  0.84521961  0.68548560  0.52623029    -0.76200
C474        C  0.81349959  0.70823045  0.52767622     0.84600
N475        N  0.79637755  0.71951281  0.49425837    -0.77900
C476        C  0.69313956  0.79347842  0.55970748     0.82100
N477        N  0.70809400  0.78395076  0.52470083    -0.76200
C478        C  0.70206924  0.80727428  0.49379051     0.84500
N479        N  0.68242095  0.84060749  0.49851576    -0.76200
C480        C  0.66867317  0.85074678  0.53339675     0.84600
N481        N  0.67356701  0.82704195  0.56376841    -0.77900
C482        C  0.48398823  0.80674741  0.30621043     0.82100
N483        N  0.51807071  0.79091676  0.29519760    -0.76200
C484        C  0.55178023  0.80920852  0.30381670     0.84500
N485        N  0.55131424  0.84390660  0.32146131    -0.76200
C486        C  0.51751025  0.86001659  0.33159183     0.84600
N487        N  0.48397856  0.84131820  0.32447538    -0.77900
C488        C  0.44641661  0.69754232  0.19915535     0.82100
N489        N  0.44581771  0.67618106  0.16640890    -0.76200
C490        C  0.47914120  0.66751567  0.14805410     0.84500
N491        N  0.51324655  0.67987335  0.16260680    -0.76200
C492        C  0.51448990  0.70167263  0.19505388     0.84600
N493        N  0.48077887  0.71134675  0.21278227    -0.77900
N494        N  0.54537665  0.94757753  0.47516978    -0.34800
N495        N  0.46208410  0.94838831  0.46124026    -0.55300
N496        N  0.44655279  0.95404621  0.54401781    -0.34700
N497        N  0.52976503  0.94815069  0.55780956    -0.55300
C498        C  0.54501579  0.93958517  0.43711273     0.28800
C499        C  0.58060816  0.93775219  0.48857054     0.28800
C500        C  0.41089008  0.94493565  0.53082834     0.28800
C501        C  0.44682699  0.94615235  0.58214031     0.28800
C502        C  0.47411284  0.94622918  0.42443726     0.37500
C503        C  0.42320530  0.94861090  0.45996687     0.37500
C504        C  0.56857963  0.94586884  0.55899754     0.37500
C505        C  0.51782317  0.95126057  0.59454375     0.37500
C506        C  0.58134833  0.92751270  0.42574890    -0.20000
C507        C  0.60370479  0.92621862  0.45815462    -0.20000
C508        C  0.38766218  0.93395428  0.56140474    -0.20000
C509        C  0.41024397  0.93472037  0.59363892    -0.20000
C510        C  0.44269316  0.94571653  0.39969018    -0.21100
C511        C  0.41049741  0.94726998  0.42218468    -0.21100
C512        C  0.58149180  0.94811058  0.59661803    -0.21100
C513        C  0.54935125  0.95177329  0.61915688    -0.21100
C514        C  0.51235420  0.93941125  0.41275066    -0.16400
C515        C  0.59192757  0.93577545  0.52757278    -0.16400
C516        C  0.47942846  0.94589339  0.60662933    -0.16400
C517        C  0.39902944  0.94311451  0.49191423    -0.16400
H518        H  0.59043786  0.91885022  0.39728677     0.16500
H519        H  0.63329934  0.91654813  0.45930532     0.16500
H520        H  0.35780251  0.92482690  0.56048030     0.16500
H521        H  0.40102628  0.92628041  0.62212453     0.16500
H522        H  0.44295939  0.94326434  0.36867153     0.14800
H523        H  0.38101493  0.94595780  0.41201042     0.14800
H524        H  0.61090637  0.94583363  0.60676119     0.14800
H525        H  0.54902215  0.95257096  0.65025882     0.14800
H526        H  0.52240138  0.95728963  0.49127266     0.28000
H527        H  0.46968272  0.96358026  0.52779754     0.28000
N528        N  0.44016394  0.05967470  0.54425215    -0.34800
N529        N  0.43239946  0.05134463  0.46094284    -0.55300
N530        N  0.51449369  0.03591440  0.45331043    -0.34700
N531        N  0.52283938  0.04930412  0.53556333    -0.55300
C532        C  0.40605700  0.07780852  0.53872501     0.28800
C533        C  0.45254750  0.06899593  0.58000540     0.28800
C534        C  0.50428049  0.03559853  0.41588415     0.28800
C535        C  0.55264047  0.04422050  0.45479291     0.28800
C536        C  0.39588997  0.06158474  0.46949421     0.37500
C537        C  0.43251357  0.04087693  0.42357639     0.37500
C538        C  0.52173945  0.04971420  0.57423207     0.37500
C539        C  0.56030149  0.04686473  0.52564640     0.37500
C540        C  0.39559610  0.09675850  0.57219077    -0.20000
C541        C  0.42459399  0.09092331  0.59826730    -0.20000
C542        C  0.53714461  0.04015225  0.39338104    -0.20000
C543        C  0.56743341  0.04634302  0.41796355    -0.20000
C544        C  0.37247848  0.05736285  0.43750108    -0.21100
C545        C  0.39554636  0.04381853  0.40851109    -0.21100
C546        C  0.55885137  0.04654309  0.58896509    -0.21100
C547        C  0.58331944  0.04542357  0.55807812    -0.21100
C548        C  0.38458116  0.07932089  0.50410930    -0.16400
C549        C  0.48941924  0.06112427  0.59583532    -0.16400
C550        C  0.57418708  0.05225135  0.48819837    -0.16400
C551        C  0.46605078  0.03483765  0.40132882    -0.16400
H552        H  0.37004946  0.11380190  0.57716923     0.16500
H553        H  0.42557605  0.10304854  0.62691116     0.16500
H554        H  0.53906233  0.04074843  0.36237051     0.16500
H555        H  0.59692017  0.05232466  0.40968011     0.16500
H556        H  0.34219191  0.06432685  0.43509494     0.14800
H557        H  0.38656182  0.03858480  0.37915001     0.14800
H558        H  0.56756343  0.04754392  0.61883780     0.14800
H559        H  0.61449503  0.04483593  0.55921419     0.14800
H560        H  0.45475283  0.04270705  0.52465589     0.28000
H561        H  0.49599665  0.03236684  0.47628034     0.28000
C562        C  0.18466792  0.71020471  0.55400029     0.82100
N563        N  0.15171049  0.68917214  0.55612779    -0.76200
C564        C  0.13307664  0.67863740  0.52360357     0.84500
N565        N  0.14762446  0.68832646  0.48899476    -0.76200
C566        C  0.18032797  0.70955937  0.48633564     0.84600
N567        N  0.19855718  0.72134675  0.51906901    -0.77900
C568        C  0.29016938  0.80836254  0.45481463     0.82100
N569        N  0.27979012  0.79481014  0.49016909    -0.76200
C570        C  0.29019364  0.81467434  0.52251222     0.84500
N571        N  0.30942968  0.84849693  0.51898595    -0.76200
C572        C  0.31836366  0.86263652  0.48397487     0.84600
N573        N  0.30886238  0.84261209  0.45195222    -0.77900
C574        C  0.28510984  0.22144565  0.54000561     0.82100
N575        N  0.30243873  0.18647927  0.53787808    -0.76200
C576        C  0.31209725  0.17081309  0.50351084     0.84500
N577        N  0.30486521  0.19028256  0.47056403    -0.76200
C578        C  0.28750429  0.22529509  0.47122042     0.84600
N579        N  0.27746870  0.24087503  0.50630002    -0.77900
C580        C  0.13158641  0.28354657  0.47297600     0.82100
N581        N  0.13952799  0.27933950  0.51074096    -0.76200
C582        C  0.11286594  0.28919349  0.53745526     0.84500
N583        N  0.07795289  0.30221516  0.52608059    -0.76200
C584        C  0.06968095  0.30587812  0.48820021     0.84600
N585        N  0.09688501  0.29749093  0.46170561    -0.77900
C586        C  0.80788811  0.51850538  0.30650602     0.82100
N587        N  0.78788713  0.48641314  0.29578722    -0.76200
C588        C  0.79894215  0.45119704  0.30887375     0.84500
N589        N  0.83137347  0.44806897  0.33062938    -0.76200
C590        C  0.85199520  0.47991876  0.34010171     0.84600
N591        N  0.84001543  0.51487446  0.32840855    -0.77900
C592        C  0.69792877  0.48523275  0.19866592     0.82100
N593        N  0.67895146  0.48719152  0.16474113    -0.76200
C594        C  0.67186924  0.52128222  0.14793772     0.84500
N595        N  0.68287280  0.55430405  0.16542621    -0.76200
C596        C  0.70143565  0.55310165  0.19980320     0.84600
N597        N  0.70997219  0.51841312  0.21609699    -0.77900
N598        N  0.94147964  0.44603621  0.48203191    -0.34800
N599        N  0.94170294  0.45963979  0.56491013    -0.55300
N600        N  0.94747928  0.54285992  0.55290712    -0.34700
N601        N  0.94544428  0.52892597  0.46978240    -0.55300
C602        C  0.93096204  0.41073310  0.49452476     0.28800
C603        C  0.93335305  0.44736155  0.44403772     0.28800
C604        C  0.93745662  0.54168931  0.59051041     0.28800
C605        C  0.93842323  0.57841832  0.53997058     0.28800
C606        C  0.93981986  0.42090043  0.56521517     0.37500
C607        C  0.94370530  0.47098030  0.60191970     0.37500
C608        C  0.94553274  0.51738507  0.43273949     0.37500
C609        C  0.94761018  0.56763994  0.46945519     0.37500
C610        C  0.91860572  0.38862709  0.46355838    -0.20000
C611        C  0.92008399  0.41169043  0.43181194    -0.20000
C612        C  0.92458696  0.57761162  0.60205922    -0.20000
C613        C  0.92519157  0.60067741  0.57032613    -0.20000
C614        C  0.94141775  0.40740397  0.60262126    -0.21100
C615        C  0.94397733  0.43915207  0.62591304    -0.21100
C616        C  0.94876333  0.54896741  0.40867969    -0.21100
C617        C  0.95007917  0.58082152  0.43195364    -0.21100
C618        C  0.92989828  0.39821837  0.53314118    -0.16400
C619        C  0.93480771  0.48023735  0.42034489    -0.16400
C620        C  0.93897707  0.59105309  0.50132163    -0.16400
C621        C  0.93681280  0.50884359  0.61441854    -0.16400
H622        H  0.90858034  0.35912517  0.46384583     0.16500
H623        H  0.91132162  0.40336333  0.40310030     0.16500
H624        H  0.91445793  0.58610730  0.63021705     0.16500
H625        H  0.91566350  0.63025024  0.56955880     0.16500
H626        H  0.93891468  0.37788462  0.61212599     0.14800
H627        H  0.94353222  0.43899573  0.65702308     0.14800
H628        H  0.94775424  0.54911540  0.37758088     0.14800
H629        H  0.95022968  0.61041295  0.42237224     0.14800
H630        H  0.95212526  0.46829558  0.49866632     0.28000
H631        H  0.95851911  0.52038771  0.53681197     0.28000
N632        N  0.05399522  0.54387829  0.46110187    -0.34800
N633        N  0.04100381  0.46135029  0.45037886    -0.55300
N634        N  0.02834652  0.45138822  0.53178778    -0.34700
N635        N  0.04453277  0.53294777  0.54275919    -0.55300
C636        C  0.07197970  0.53834190  0.42698170     0.28800
C637        C  0.06585705  0.57845105  0.47471817     0.28800
C638        C  0.02786553  0.41440741  0.51989315     0.28800
C639        C  0.03985872  0.45139309  0.56901947     0.28800
C640        C  0.05008849  0.47120193  0.41400728     0.37500
C641        C  0.02740417  0.42497745  0.44902808     0.37500
C642        C  0.04528521  0.57162389  0.54293329     0.37500
C643        C  0.04088534  0.52183818  0.57961737     0.37500
C644        C  0.09373248  0.57062787  0.41795728    -0.20000
C645        C  0.08960653  0.59600082  0.44776589    -0.20000
C646        C  0.03654984  0.39065827  0.55080540    -0.20000
C647        C  0.04490430  0.41400723  0.58146493    -0.20000
C648        C  0.04212425  0.44102227  0.38920919    -0.21100
C649        C  0.02716539  0.41187144  0.41131227    -0.21100
C650        C  0.04125973  0.58526363  0.58025451    -0.21100
C651        C  0.03908150  0.55356163  0.60359289    -0.21100
C652        C  0.07038182  0.50482048  0.40394634    -0.16400
C653        C  0.05802518  0.59380525  0.51163417    -0.16400
C654        C  0.04676086  0.48404868  0.59206282    -0.16400
C655        C  0.02194782  0.40149105  0.48164120    -0.16400
H656        H  0.11131171  0.57533276  0.39270952     0.16500
H657        H  0.10383143  0.62366626  0.44981533     0.16500
H658        H  0.03766341  0.35969134  0.55134148     0.16500
H659        H  0.05349749  0.40450829  0.60981013     0.16500
H660        H  0.04761894  0.43982014  0.35861592     0.14800
H661        H  0.01927745  0.38348144  0.40113916     0.14800
H662        H  0.04268128  0.61483877  0.58988845     0.14800
H663        H  0.03800876  0.55367403  0.63468545     0.14800
H664        H  0.03513098  0.52511596  0.47467502     0.28000
H665        H  0.02162322  0.47508883  0.51511649     0.28000
C666        C  0.78990105  0.29200815  0.56123128     0.82100
N667        N  0.82378132  0.31095791  0.56605311    -0.76200
C668        C  0.84475028  0.32179430  0.53520019     0.84500
N669        N  0.83164530  0.31428513  0.49925468    -0.76200
C670        C  0.79793154  0.29495134  0.49392343     0.84600
N671        N  0.77746204  0.28289122  0.52514329    -0.77900
C672        C  0.68861965  0.18793328  0.45627142     0.82100
N673        N  0.66531090  0.15646195  0.45338984    -0.76200
C674        C  0.65428089  0.13713137  0.48548560     0.84500
N675        N  0.66598371  0.14958250  0.52052354    -0.76200
C676        C  0.68934231  0.18081152  0.52402323     0.84600
N677        N  0.70151134  0.19938099  0.49163974    -0.77900
C678        C  0.79225316  0.69051421  0.06216831     0.82100
N679        N  0.81406987  0.65834308  0.06512889    -0.76200
C680        C  0.82258033  0.63750381  0.03335315     0.84500
N681        N  0.81002158  0.64927504  0.99837117    -0.76200
C682        C  0.78798203  0.68132944  0.99501533     0.84600
N683        N  0.77820490  0.70130868  0.02723881    -0.77900
C684        C  0.68106285  0.79280039  0.96107814     0.82100
N685        N  0.69785494  0.78356070  0.99532727    -0.76200
C686        C  0.68074417  0.79434711  0.02892337     0.84500
N687        N  0.64642804  0.81286184  0.02788471    -0.76200
C688        C  0.62912104  0.82078589  0.99406438     0.84600
N689        N  0.64644887  0.81091119  0.96066110    -0.77900
C690        C  0.00919529  0.68530264  0.79764078     0.82100
N691        N  0.00694654  0.65208447  0.81790007    -0.76200
C692        C  0.97251522  0.63826092  0.82969770     0.84500
N693        N  0.93989550  0.65811098  0.82220622    -0.76200
C694        C  0.94163578  0.69155250  0.80219871     0.84600
N695        N  0.97624669  0.70461995  0.78886224    -0.77900
C696        C  0.04317707  0.79326360  0.69470507     0.82100
N697        N  0.04426977  0.81387683  0.66165228    -0.76200
C698        C  0.01114675  0.82395479  0.64382167     0.84500
N699        N  0.97680260  0.81399224  0.65925516    -0.76200
C700        C  0.97514534  0.79300402  0.69207308     0.84600
N701        N  0.00855400  0.78182478  0.70944989    -0.77900
C702        C  0.67227263  0.98159092  0.80898128     0.82100
N703        N  0.68961755  0.01434831  0.79619290    -0.76200
C704        C  0.67610012  0.04929422  0.80737199     0.84500
N705        N  0.64404256  0.05149563  0.82951430    -0.76200
C706        C  0.62603825  0.01904140  0.84134082     0.84600
N707        N  0.64033405  0.98418428  0.83144909    -0.77900
C708        C  0.78398446  0.01549075  0.69663463     0.82100
N709        N  0.77373769  0.98277282  0.71566277    -0.76200
C710        C  0.78669473  0.94795474  0.70323261     0.84500
N711        N  0.80784661  0.94573943  0.67050734    -0.76200
C712        C  0.81708595  0.97806944  0.65089103     0.84600
N713        N  0.80555362  0.01279784  0.66416519    -0.77900
C714        C  0.26317054  0.20651621  0.97119551     0.82100
N715        N  0.29592241  0.18504825  0.97125338    -0.76200
C716        C  0.31333440  0.17462207  0.00462453     0.84500
N717        N  0.29799160  0.18539871  0.03878467    -0.76200
C718        C  0.26534864  0.20682918  0.04060531     0.84600
N719        N  0.24777201  0.21742585  0.00636487    -0.77900
C720        C  0.22022922  0.35458468  0.03704250     0.82100
N721        N  0.23133712  0.34390099  0.00154559    -0.76200
C722        C  0.22066711  0.36507751  0.97088538     0.84500
N723        N  0.19991041  0.39777812  0.97577828    -0.76200
C724        C  0.19077977  0.40957227  0.01181947     0.84600
N725        N  0.19997042  0.38738699  0.04223153    -0.77900
C726        C  0.68656462  0.01737902  0.21227725     0.82100
N727        N  0.65241049  0.01321124  0.19358087    -0.76200
C728        C  0.63796736  0.97775416  0.18617718     0.84500
N729        N  0.65795554  0.94616307  0.19647500    -0.76200
C730        C  0.69221693  0.94978647  0.21489326     0.84600
N731        N  0.70605206  0.98544816  0.22391331    -0.77900
C732        C  0.79439728  0.98564104  0.32431085     0.82100
N733        N  0.81786404  0.98876065  0.35535793    -0.76200
C734        C  0.83015365  0.02354604  0.36778149     0.84500
N735        N  0.81973943  0.05583126  0.34856567    -0.76200
C736        C  0.79624407  0.05334564  0.31728519     0.84600
N737        N  0.78260150  0.01819055  0.30589600    -0.77900
N738        N  0.42002590  0.03966661  0.96205216    -0.34800
N739        N  0.43495859  0.95804042  0.97130228    -0.55300
N740        N  0.45091698  0.96789399  0.05280412    -0.34700
N741        N  0.43090973  0.04886409  0.04457688    -0.55300
C742        C  0.40997765  0.02618482  0.92693093     0.28800
C743        C  0.40020229  0.07272002  0.96780919     0.28800
C744        C  0.44313149  0.92970212  0.05196871     0.28800
C745        C  0.45015518  0.97872729  0.09004182     0.28800
C746        C  0.43443404  0.95895506  0.93262429     0.37500
C747        C  0.44091017  0.92112403  0.98131895     0.37500
C748        C  0.41958402  0.08493593  0.03576019     0.37500
C749        C  0.44384496  0.04985173  0.08119675     0.37500
C750        C  0.38539967  0.05228419  0.90930966    -0.20000
C751        C  0.37898298  0.08130562  0.93515828    -0.20000
C752        C  0.43994667  0.91572773  0.08904882    -0.20000
C753        C  0.44494265  0.94646280  0.11311302    -0.20000
C754        C  0.44086564  0.92235997  0.91797653    -0.21100
C755        C  0.44426641  0.89826291  0.94896402    -0.21100
C756        C  0.42545350  0.10912112  0.06686561    -0.21100
C757        C  0.44127557  0.08703646  0.09549755    -0.21100
C758        C  0.42032560  0.99007873  0.91102959    -0.16400
C759        C  0.39992390  0.09517586  0.00177494    -0.16400
C760        C  0.45101392  0.01695679  0.10394236    -0.16400
C761        C  0.43712342  0.90715180  0.01888146    -0.16400
H762        H  0.37221260  0.05020235  0.88120192     0.16500
H763        H  0.36029701  0.10570287  0.93050895     0.16500
H764        H  0.43413194  0.88644688  0.09786513     0.16500
H765        H  0.44320940  0.94519195  0.14412500     0.16500
H766        H  0.44048441  0.91354810  0.88812711     0.14800
H767        H  0.44763270  0.86735850  0.94795977     0.14800
H768        H  0.41816778  0.13927239  0.06897744     0.14800
H769        H  0.44808914  0.09674970  0.12429819     0.14800
H770        H  0.43907958  0.02664579  0.98089393     0.28000
H771        H  0.45535988  0.98595413  0.02957913     0.28000
N772        N  0.53380347  0.96064706  0.96825595    -0.34800
N773        N  0.54076504  0.94880473  0.05083768    -0.55300
N774        N  0.53697980  0.03225137  0.06510592    -0.34700
N775        N  0.53418900  0.04429547  0.98237124    -0.55300
C776        C  0.54292430  0.92283103  0.96870058     0.28800
C777        C  0.54139998  0.97359198  0.93241755     0.28800
C778        C  0.54864644  0.01980615  0.10003995     0.28800
C779        C  0.54466722  0.07044774  0.06374682     0.28800
C780        C  0.54027878  0.91165055  0.03961405     0.37500
C781        C  0.54278001  0.94864647  0.08953813     0.37500
C782        C  0.53336451  0.04436531  0.94360584     0.37500
C783        C  0.53318146  0.08143147  0.99364468     0.37500
C784        C  0.55310841  0.91106510  0.93200066    -0.20000
C785        C  0.55223965  0.94300235  0.90919663    -0.20000
C786        C  0.56111589  0.05090133  0.12193501    -0.20000
C787        C  0.55859909  0.08271924  0.09912311    -0.20000
C788        C  0.54135801  0.88772800  0.07143055    -0.21100
C789        C  0.54298291  0.91118311  0.10307315    -0.21100
C790        C  0.53092681  0.08173276  0.93010838    -0.21100
C791        C  0.53062356  0.10522400  0.96180716    -0.21100
C792        C  0.54587329  0.89913895  0.00151689    -0.16400
C793        C  0.54247268  0.01242224  0.92045607    -0.16400
C794        C  0.54269150  0.09429035  0.03095094    -0.16400
C795        C  0.55112180  0.98113330  0.11226557    -0.16400
H796        H  0.56194833  0.88268748  0.92286092     0.16500
H797        H  0.56019751  0.94380746  0.87913953     0.16500
H798        H  0.57218417  0.05063592  0.15103413     0.16500
H799        H  0.56743791  0.11146893  0.10732402     0.16500
H800        H  0.54276971  0.85664945  0.07164747     0.14800
H801        H  0.54581757  0.90182881  0.13259735     0.14800
H802        H  0.53154982  0.09109551  0.90045777     0.14800
H803        H  0.53110393  0.13633961  0.96144715     0.14800
H804        H  0.52503274  0.97709395  0.99139268     0.28000
H805        H  0.52595425  0.01538135  0.04316982     0.28000
C806        C  0.67917667  0.20373316  0.06095040     0.82100
N807        N  0.64483376  0.18492206  0.06384693    -0.76200
C808        C  0.62493203  0.17475065  0.03180314     0.84500
N809        N  0.63927998  0.18322151  0.99675555    -0.76200
C810        C  0.67311414  0.20253830  0.99312429     0.84600
N811        N  0.69280639  0.21359048  0.02543012    -0.77900
C812        C  0.77937348  0.30749426  0.95829600     0.82100
N813        N  0.76926670  0.29455841  0.99400268    -0.76200
C814        C  0.78308749  0.31293650  0.02595128     0.84500
N815        N  0.80513021  0.34477980  0.02175333    -0.76200
C816        C  0.81376795  0.35842802  0.98659795     0.84600
N817        N  0.80135817  0.33968680  0.95479095    -0.77900
C818        C  0.35593275  0.97258457  0.23561889     0.82100
N819        N  0.38806595  0.97739198  0.21373653    -0.76200
C820        C  0.39757486  0.01304354  0.20102478     0.84500
N821        N  0.37369172  0.04275887  0.20775312    -0.76200
C822        C  0.34138000  0.03752786  0.22893626     0.84600
N823        N  0.33303932  0.00274856  0.24369275    -0.77900
C824        C  0.20061400  0.03899919  0.28102740     0.82100
N825        N  0.18308530  0.03817625  0.31597337    -0.76200
C826        C  0.17551292  0.00447155  0.33403964     0.84500
N827        N  0.18489875  0.97068802  0.31705347    -0.76200
C828        C  0.20249266  0.96969680  0.28215239     0.84600
N829        N  0.21059370  0.00431535  0.26409783    -0.77900
C830        C  0.98155643  0.69373688  0.21006251     0.82100
N831        N  0.01369878  0.71418354  0.21995260    -0.76200
C832        C  0.04905767  0.70244963  0.20762700     0.84500
N833        N  0.05226575  0.66899969  0.18762142    -0.76200
C834        C  0.02035002  0.64816230  0.17876072     0.84600
N835        N  0.98527091  0.66074226  0.18963968    -0.77900
C836        C  0.94956502  0.79752779  0.31739576     0.82100
N837        N  0.94864297  0.81549719  0.35200891    -0.76200
C838        C  0.98182416  0.82691875  0.36897962     0.84500
N839        N  0.01582772  0.82106198  0.35131152    -0.76200
C840        C  0.01740356  0.80278261  0.31700402     0.84600
N841        N  0.98409777  0.79019028  0.30016346    -0.77900
N842        N  0.95145626  0.43538830  0.04598602    -0.34800
N843        N  0.03466218  0.44618263  0.05186729    -0.55300
N844        N  0.04039052  0.46321255  0.96998843    -0.34700
N845        N  0.95794474  0.44936087  0.96395390    -0.55300
C846        C  0.95872158  0.41615002  0.07907879     0.28800
C847        C  0.91652478  0.42336884  0.03323392     0.28800
C848        C  0.07794245  0.45986396  0.97957397     0.28800
C849        C  0.03740927  0.45347998  0.93236176     0.28800
C850        C  0.02676105  0.43716437  0.08882140     0.37500
C851        C  0.07162201  0.45853824  0.05100737     0.37500
C852        C  0.91925449  0.44882443  0.96639867     0.37500
C853        C  0.96641801  0.45597101  0.92678972     0.37500
C854        C  0.92723066  0.39326381  0.08833316    -0.20000
C855        C  0.90062288  0.39793694  0.05963043    -0.20000
C856        C  0.09920971  0.45031328  0.94707276    -0.20000
C857        C  0.07356583  0.44584031  0.91749342    -0.20000
C858        C  0.05876239  0.44399088  0.11169705    -0.21100
C859        C  0.08708288  0.45792509  0.08783077    -0.21100
C860        C  0.90301367  0.45603785  0.93062643    -0.21100
C861        C  0.93304328  0.46001194  0.90537624    -0.21100
C862        C  0.99314174  0.41773881  0.10090885    -0.16400
C863        C  0.89918778  0.43303923  0.99766104    -0.16400
C864        C  0.00300460  0.45002925  0.91113295    -0.16400
C865        C  0.09349234  0.46296800  0.01703773    -0.16400
H866        H  0.92390920  0.37446855  0.11287719     0.16500
H867        H  0.87316227  0.38316878  0.05794663     0.16500
H868        H  0.12991481  0.44549389  0.94495838     0.16500
H869        H  0.08071690  0.43745418  0.88839903     0.16500
H870        H  0.06174842  0.43822192  0.14211597     0.14800
H871        H  0.11643057  0.46458767  0.09620093     0.14800
H872        H  0.87274962  0.45541362  0.92301429     0.14800
H873        H  0.93073137  0.46344273  0.87454256     0.14800
H874        H  0.96923857  0.45535446  0.03257862     0.28000
H875        H  0.01829069  0.47114264  0.98843111     0.28000
N876        N  0.94862285  0.54605148  0.97252497    -0.34800
N877        N  0.03158064  0.55362604  0.95682013    -0.55300
N878        N  0.04952588  0.55322939  0.03899876    -0.34700
N879        N  0.96659527  0.55032864  0.05482082    -0.55300
C880        C  0.94765708  0.55473249  0.93461554     0.28800
C881        C  0.91321143  0.55396558  0.98675422     0.28800
C882        C  0.08435645  0.56351884  0.02482206     0.28800
C883        C  0.04976765  0.56243793  0.07679411     0.28800
C884        C  0.01839520  0.55159548  0.92036931     0.37500
C885        C  0.07039073  0.55587973  0.95456952     0.37500
C886        C  0.92779211  0.54836190  0.05704355     0.37500
C887        C  0.97984175  0.55174423  0.09129876     0.37500
C888        C  0.91049912  0.56505345  0.92416353    -0.20000
C889        C  0.88883968  0.56458097  0.95694015    -0.20000
C890        C  0.10785495  0.57634154  0.05460969    -0.20000
C891        C  0.08604983  0.57576663  0.08725578    -0.20000
C892        C  0.04908364  0.55189792  0.89483695    -0.21100
C893        C  0.08200430  0.55475356  0.91651366    -0.21100
C894        C  0.91633118  0.54753332  0.09517409    -0.21100
C895        C  0.94929844  0.54969448  0.11687599    -0.21100
C896        C  0.97960752  0.55689261  0.90952802    -0.16400
C897        C  0.90270623  0.55551182  0.02601786    -0.16400
C898        C  0.01768262  0.56252400  0.10170785    -0.16400
C899        C  0.09494042  0.56491066  0.98561492    -0.16400
H900        H  0.90031208  0.57365234  0.89605381     0.16500
H901        H  0.85882119  0.57273192  0.95876805     0.16500
H902        H  0.13731339  0.58655927  0.05289514     0.16500
H903        H  0.09551226  0.58546471  0.11531792     0.16500
H904        H  0.04769997  0.55205504  0.86375247     0.14800
H905        H  0.11108112  0.55734422  0.90554322     0.14800
H906        H  0.88713173  0.54780946  0.10610322     0.14800
H907        H  0.95058019  0.55191537  0.14789068     0.14800
H908        H  0.97248333  0.53721268  0.98799478     0.28000
H909        H  0.02644303  0.54244293  0.02350220     0.28000
C910        C  0.29914659  0.80211012  0.05504920     0.82100
N911        N  0.33337165  0.82144376  0.05710906    -0.76200
C912        C  0.35578283  0.82530637  0.02535995     0.84500
N913        N  0.34357699  0.81089630  0.99135403    -0.76200
C914        C  0.30963294  0.79158912  0.98875161     0.84600
N915        N  0.28767970  0.78660127  0.02081369    -0.77900
C916        C  0.19295347  0.70824922  0.95457260     0.82100
N917        N  0.20740521  0.71870869  0.98952783    -0.76200
C918        C  0.20233087  0.69521362  0.02044952     0.84500
N919        N  0.18436227  0.66073194  0.01590514    -0.76200
C920        C  0.17144598  0.64967361  0.98084908     0.84600
N921        N  0.17518362  0.67359338  0.95055174    -0.77900
C922        C  0.02867957  0.27835265  0.20656028     0.82100
N923        N  0.02863698  0.31234965  0.18733025    -0.76200
C924        C  0.99527139  0.33031551  0.17826684     0.84500
N925        N  0.96096647  0.31408243  0.18790016    -0.76200
C926        C  0.95925772  0.28001803  0.20706756     0.84600
N927        N  0.99357491  0.26215756  0.21666626    -0.77900
C928        C  0.02283101  0.21858234  0.35551037     0.82100
N929        N  0.03451624  0.20685451  0.39077618    -0.76200
C930        C  0.00831305  0.19680866  0.41763338     0.84500
N931        N  0.97028172  0.19665007  0.40861339    -0.76200
C932        C  0.95847865  0.20771678  0.37318606     0.84600
N933        N  0.98488460  0.21918435  0.34673223    -0.77900
C934        C  0.96554823  0.32025466  0.79905288     0.82100
N935        N  0.96793401  0.35319178  0.81993359    -0.76200
C936        C  0.00263166  0.36777184  0.83037909     0.84500
N937        N  0.03537887  0.34887023  0.82097600    -0.76200
C938        C  0.03358277  0.31580672  0.80022382     0.84600
N939        N  0.99861562  0.30207885  0.78824087    -0.73500
C940        C  0.92827653  0.20782296  0.68948407     0.82100
N941        N  0.96159839  0.21554896  0.70900947    -0.76200
C942        C  0.99621499  0.20692221  0.69254558     0.84500
N943        N  0.99704840  0.19152973  0.65667137    -0.76200
C944        C  0.96407927  0.18515815  0.63695443     0.84600
N945        N  0.92980349  0.19319965  0.65336162    -0.77900
N946        N  0.04455588  0.96238010  0.44243176    -0.34800
N947        N  0.96235092  0.97153258  0.45305129    -0.55300
N948        N  0.97183168  0.05359642  0.46666555    -0.34700
N949        N  0.05354834  0.04551924  0.45183923    -0.55300
C950        C  0.03179624  0.92672905  0.43316305     0.28800
C951        C  0.07867303  0.96774603  0.42420300     0.28800
C952        C  0.93394302  0.05253380  0.45731279     0.28800
C953        C  0.98258397  0.09090594  0.46709702     0.28800
C954        C  0.96303162  0.93287212  0.45337245     0.37500
C955        C  0.92508070  0.98180086  0.45594373     0.37500
C956        C  0.08998614  0.03656056  0.44175389     0.37500
C957        C  0.05409221  0.08252985  0.46356567     0.37500
C958        C  0.05934925  0.90841030  0.41076384    -0.20000
C959        C  0.08862869  0.93433619  0.40485203    -0.20000
C960        C  0.91990109  0.08953164  0.45406595    -0.20000
C961        C  0.95029695  0.11375366  0.46108977    -0.20000
C962        C  0.92580612  0.91846748  0.45730676    -0.21100
C963        C  0.90169323  0.94959707  0.45827045    -0.21100
C964        C  0.11399117  0.06803750  0.44709255    -0.21100
C965        C  0.09136884  0.09703810  0.46138967    -0.21100
C966        C  0.99512852  0.91092570  0.44217768    -0.16400
C967        C  0.10086795  0.00201850  0.42359350    -0.16400
C968        C  0.02087434  0.10501653  0.47009268    -0.16400
C969        C  0.91173314  0.01932027  0.45029917    -0.16400
H970        H  0.05804581  0.87976517  0.39865929     0.16500
H971        H  0.11415284  0.92921540  0.38776456     0.16500
H972        H  0.89072918  0.09818636  0.44733074     0.16500
H973        H  0.94867857  0.14473411  0.46065606     0.16500
H974        H  0.91676744  0.88864670  0.45695945     0.14800
H975        H  0.87051957  0.94875294  0.45939288     0.14800
H976        H  0.14442088  0.07008526  0.44052519     0.14800
H977        H  0.10087510  0.12607968  0.46756485     0.14800
H978        H  0.03042807  0.98187621  0.45990252     0.28000
H979        H  0.98972505  0.03043002  0.47161540     0.28000
N980        N  0.94207687  0.03844945  0.55523084    -0.34800
N981        N  0.02486173  0.05272733  0.56122521    -0.55300
N982        N  0.04085578  0.96971615  0.55917037    -0.34700
N983        N  0.95777712  0.95554207  0.55730753    -0.55300
C984        C  0.94191550  0.07672737  0.56234121     0.28800
C985        C  0.90662248  0.02492364  0.56441132     0.28800
C986        C  0.07531245  0.98329986  0.57171338     0.28800
C987        C  0.03999402  0.93164612  0.56732444     0.28800
C988        C  0.01299339  0.08959365  0.55968529     0.37500
C989        C  0.06361151  0.05396271  0.56463439     0.37500
C990        C  0.91889245  0.95438375  0.55761808     0.37500
C991        C  0.96977407  0.91871940  0.55615007     0.37500
C992        C  0.90517678  0.08793747  0.57330566    -0.20000
C993        C  0.88306023  0.05533117  0.57483377    -0.20000
C994        C  0.09745662  0.95303351  0.58525228    -0.20000
C995        C  0.07531477  0.92057948  0.58239425    -0.20000
C996        C  0.04449789  0.11429553  0.56148633    -0.21100
C997        C  0.07650879  0.09171396  0.56472006    -0.21100
C998        C  0.90601646  0.91667261  0.55585547    -0.21100
C999        C  0.93823583  0.89406226  0.55460067    -0.21100
C1000       C  0.97430435  0.10159778  0.56245582    -0.16400
C1001       C  0.89525764  0.98589863  0.56659612    -0.16400
C1002       C  0.00760224  0.90689046  0.56488942    -0.16400
C1003       C  0.08684019  0.02231162  0.57405157    -0.16400
H1004       H  0.89559627  0.11645336  0.58116050     0.16500
H1005       H  0.85321643  0.05408060  0.58380516     0.16500
H1006       H  0.12623066  0.95426195  0.59727552     0.16500
H1007       H  0.08383547  0.89225553  0.59193570     0.16500
H1008       H  0.04428265  0.14540801  0.56199179     0.14800
H1009       H  0.10582994  0.10189009  0.56831977     0.14800
H1010       H  0.87650262  0.90654259  0.55726387     0.14800
H1011       H  0.93847098  0.86295103  0.55516849     0.14800
H1012       H  0.96538972  0.02236717  0.54621937     0.28000
H1013       H  0.01875539  0.98569495  0.54726218     0.28000
C1014       C  0.29837164  0.01909452  0.80055136     0.82100
N1015       N  0.33320249  0.01446854  0.81732231    -0.76200
C1016       C  0.34492965  0.97931806  0.82858095     0.84500
N1017       N  0.32116295  0.94858903  0.82461961    -0.76200
C1018       C  0.28597326  0.95262475  0.80779600     0.84600
N1019       N  0.27495328  0.98795645  0.79490501    -0.77900
C1020       C  0.19827379  0.98626706  0.69995033     0.82100
N1021       N  0.20269550  0.01583072  0.72541579    -0.76200
C1022       C  0.18636672  0.05068541  0.71799201     0.84500
N1023       N  0.16742274  0.05615841  0.68417620    -0.76200
C1024       C  0.16442986  0.02716879  0.65828751     0.84600
N1025       N  0.17917069  0.99224530  0.66651125    -0.77900
O1026       O  0.18823437  0.24906422  0.37370358    -0.86300
C1027       C  0.30523844  0.13697433  0.22600708     1.13700
O1028       O  0.21054157  0.25484392  0.28865292    -1.34100
O1029       O  0.33725702  0.19512737  0.31230445    -0.87800
O1030       O  0.17763019  0.30792830  0.35012317    -0.88500
O1031       O  0.25663250  0.33854693  0.30269652    -0.77300
O1032       O  0.26050921  0.21561528  0.34195021    -0.99400
C1033       C  0.34600073  0.29379614  0.24644300     1.23800
O1034       O  0.24391760  0.28832282  0.22573457    -1.34300
Mn1035     Mn  0.21993144  0.23084533  0.23162795     1.82100
O1036       O  0.32591918  0.30135529  0.27578932    -0.76400
O1037       O  0.36320522  0.20655341  0.25449849    -0.85800
C1038       C  0.26114846  0.22255359  0.15457311     1.14800
C1039       C  0.36592953  0.19901256  0.29018093     1.09600
O1040       O  0.16144134  0.23884635  0.21136474    -0.77300
O1041       O  0.27650318  0.22461943  0.25747090    -1.31000
O1042       O  0.15819949  0.29389464  0.23749112    -0.96500
C1043       C  0.27348271  0.37872353  0.19938652     1.08300
Mn1044     Mn  0.32051456  0.22167816  0.21468602     1.48600
O1045       O  0.23767393  0.37357312  0.20543828    -0.85700
Mn1046     Mn  0.16707088  0.29781529  0.29261670     1.49600
O1047       O  0.14861958  0.19969472  0.31680264    -0.89600
C1048       C  0.27762022  0.24080753  0.35969993     1.21500
C1049       C  0.12035102  0.22234032  0.31339988     1.13500
Mn1050     Mn  0.26738969  0.28076609  0.28296447     1.81000
O1051       O  0.28627606  0.23992345  0.17268231    -0.94700
Mn1052     Mn  0.20556165  0.21079279  0.33055229     1.49300
C1053       C  0.17981764  0.28443131  0.37774576     1.10100
Mn1054     Mn  0.28921690  0.29477155  0.18501686     1.49900
C1055       C  0.21569895  0.31632156  0.13636317     1.13000
O1056       O  0.20179957  0.33976456  0.27545986    -1.00500
O1057       O  0.30965183  0.16474584  0.20306103    -0.90200
C1058       C  0.22663498  0.35704254  0.29374837     1.24200
O1059       O  0.32985395  0.27655361  0.22023428    -1.00900
O1060       O  0.29676336  0.14067601  0.26131881    -0.88300
O1061       O  0.25139211  0.31049150  0.14180281    -0.87900
O1062       O  0.12382046  0.25811760  0.30661012    -0.88000
Mn1063     Mn  0.28036281  0.18199071  0.30080577     1.47900
O1064       O  0.23090355  0.21331933  0.17282260    -0.76400
C1065       C  0.14174707  0.26828771  0.21955170     1.17300
O1066       O  0.28576120  0.27120053  0.34152757    -0.75200
O1067       O  0.20169897  0.17137094  0.23962614    -0.74800
Mn1068     Mn  0.19926974  0.32964740  0.22031724     1.51100
O1069       O  0.29795649  0.35185355  0.19915027    -0.87100
O1070       O  0.22555450  0.17046887  0.29571282    -0.94700
O1071       O  0.19090497  0.31729101  0.16295796    -0.89700
C1072       C  0.20920847  0.15268849  0.26996053     1.15100
C1073       C  0.12058507  0.03036304  0.59719427    -0.11400
C1074       C  0.14307614  0.03204808  0.62348200    -0.13000
C1075       C  0.96542547  0.16479738  0.60135990    -0.11400
C1076       C  0.96848025  0.13963810  0.57792716    -0.13000
C1077       C  0.05170925  0.22944342  0.32709832    -0.14600
C1078       C  0.08229234  0.20664385  0.32241396    -0.29800
H1079       H  0.05123858  0.25853744  0.31582551     0.14400
H1080       H  0.08125602  0.17741635  0.33350498     0.15000
C1081       C  0.02520487  0.14609831  0.46719196    -0.11400
C1082       C  0.02084463  0.17576812  0.45034492    -0.13000
C1083       C  0.06746500  0.26084001  0.21736488    -0.14600
C1084       C  0.10166676  0.27586787  0.20420689    -0.29800
H1085       H  0.06802015  0.23731085  0.23779530     0.14400
H1086       H  0.10023132  0.30016481  0.18473579     0.15000
C1087       C  0.15132308  0.61394386  0.97643834    -0.11400
C1088       C  0.12900665  0.58738171  0.97708664    -0.13000
C1089       C  0.00433496  0.42821717  0.87575773    -0.11400
C1090       C  0.00438114  0.40247793  0.85257206    -0.13000
C1091       C  0.99598566  0.39195524  0.13374901    -0.11400
C1092       C  0.99626138  0.36536268  0.15614998    -0.13000
C1093       C  0.98150999  0.84828791  0.40380371    -0.11400
C1094       C  0.98672655  0.87340269  0.42682669    -0.13000
C1095       C  0.02153165  0.58603513  0.13586461    -0.11400
C1096       C  0.02302639  0.61285108  0.15774575    -0.13000
C1097       C  0.19558370  0.11193122  0.27812648    -0.14600
C1098       C  0.20956071  0.07816603  0.26304661    -0.29800
H1099       H  0.17689192  0.10974703  0.30302694     0.14400
H1100       H  0.22925186  0.07938934  0.23888213     0.15000
C1101       C  0.15483433  0.00439027  0.36990360    -0.11400
C1102       C  0.13320061  0.00360583  0.39709389    -0.13000
C1103       C  0.31469492  0.09891843  0.21199898    -0.14600
C1104       C  0.31599904  0.06947781  0.23648639    -0.29800
H1105       H  0.32766295  0.09657259  0.18364169     0.14400
H1106       H  0.30193459  0.07066095  0.26435872     0.15000
C1107       C  0.83779753  0.39152081  0.98407498    -0.11400
C1108       C  0.86289441  0.41482168  0.98887278    -0.13000
C1109       C  0.56360779  0.13035666  0.03344872    -0.11400
C1110       C  0.58947233  0.15357701  0.03436502    -0.13000
C1111       C  0.38005969  0.97636516  0.84949819    -0.11400
C1112       C  0.40383779  0.98078972  0.87415341    -0.13000
C1113       C  0.41592240  0.87149235  0.02353200    -0.11400
C1114       C  0.39055460  0.84783917  0.02632147    -0.13000
C1115       C  0.42835717  0.01838705  0.17450333    -0.11400
C1116       C  0.44552174  0.02099973  0.14473320    -0.13000
C1117       C  0.85414244  0.02552796  0.40136238    -0.11400
C1118       C  0.87734576  0.02357512  0.42710882    -0.13000
C1119       C  0.57444945  0.97452938  0.14587608    -0.11400
C1120       C  0.60176696  0.97387532  0.16705841    -0.13000
C1121       C  0.20316080  0.32676911  0.09796912    -0.14600
C1122       C  0.22878383  0.33012411  0.06954077    -0.29800
H1123       H  0.17416251  0.33807569  0.09457972     0.14400
H1124       H  0.25733967  0.31754239  0.07148707     0.15000
C1125       C  0.13449351  0.45730534  0.02004557    -0.11400
C1126       C  0.16440820  0.44035767  0.01738043    -0.13000
C1127       C  0.26980108  0.20969624  0.11367040    -0.14600
C1128       C  0.25013601  0.21825514  0.08034773    -0.29800
H1129       H  0.29733235  0.19529052  0.11074550     0.14400
H1130       H  0.22369203  0.23471921  0.08212771     0.15000
C1131       C  0.34713513  0.15048511  0.00394636    -0.11400
C1132       C  0.37329425  0.12750846  0.00337092    -0.13000
C1133       C  0.86151418  0.97788952  0.58974078    -0.11400
C1134       C  0.83914398  0.97583995  0.61612859    -0.13000
C1135       C  0.59168913  0.02144375  0.86403974    -0.11400
C1136       C  0.56542597  0.02004333  0.88660474    -0.13000
C1137       C  0.01091982  0.87055287  0.58472318    -0.11400
C1138       C  0.01212679  0.84657926  0.60955815    -0.13000
C1139       C  0.97120431  0.60327553  0.85113566    -0.11400
C1140       C  0.97366548  0.57762034  0.87409529    -0.13000
C1141       C  0.59345487  0.84132142  0.99409455    -0.11400
C1142       C  0.56743924  0.86393230  0.99686320    -0.13000
C1143       C  0.86837040  0.57748351  0.03461323    -0.11400
C1144       C  0.84536454  0.60329851  0.03639843    -0.13000
C1145       C  0.90701009  0.36424994  0.54029452    -0.11400
C1146       C  0.88024727  0.34218507  0.54037129    -0.13000
C1147       C  0.88661321  0.47720105  0.36234659    -0.11400
C1148       C  0.91272322  0.47796647  0.38514933    -0.13000
C1149       C  0.16054221  0.27395561  0.44425211    -0.14600
C1150       C  0.16723313  0.29831606  0.41532804    -0.29800
H1151       H  0.17220076  0.24502674  0.44417076     0.14400
H1152       H  0.15587282  0.32739143  0.41685448     0.15000
C1153       C  0.02297797  0.36049138  0.47571963    -0.11400
C1154       C  0.03815745  0.32965652  0.47750204    -0.13000
C1155       C  0.27811215  0.24471905  0.43333174    -0.14600
C1156       C  0.29255726  0.23160152  0.39924100    -0.29800
H1157       H  0.25737700  0.26800300  0.43318245     0.14400
H1158       H  0.31236645  0.20754235  0.40010414     0.15000
C1159       C  0.07581104  0.63020959  0.52071831    -0.11400
C1160       C  0.09935643  0.65519696  0.52506766    -0.13000
C1161       C  0.60799422  0.07664235  0.48417002    -0.11400
C1162       C  0.63066533  0.10308294  0.48290882    -0.13000
C1163       C  0.35308309  0.10682380  0.50234045    -0.11400
C1164       C  0.33223172  0.13462900  0.50221664    -0.13000
C1165       C  0.36327593  0.92301822  0.48432655    -0.11400
C1166       C  0.33974078  0.89772343  0.48147734    -0.13000
C1167       C  0.51651182  0.92022168  0.37628095    -0.11400
C1168       C  0.51744866  0.89531056  0.35243691    -0.13000
C1169       C  0.64729375  0.88566061  0.53735228    -0.11400
C1170       C  0.62522066  0.91223240  0.53575955    -0.13000
C1171       C  0.89327004  0.65006276  0.49098065    -0.11400
C1172       C  0.91820078  0.62618931  0.49342622    -0.13000
C1173       C  0.47292461  0.90217493  0.66728046    -0.11400
C1174       C  0.47472889  0.92689236  0.64323484    -0.13000
C1175       C  0.07105076  0.47943899  0.62558660    -0.11400
C1176       C  0.09837456  0.47822149  0.64700678    -0.13000
C1177       C  0.62617368  0.51560890  0.08909884    -0.11400
C1178       C  0.65041329  0.52153632  0.11302793    -0.13000
C1179       C  0.47852877  0.64551543  0.11303858    -0.11400
C1180       C  0.47953468  0.62356092  0.08616625    -0.13000
C1181       C  0.51079666  0.62601377  0.92871249    -0.11400
C1182       C  0.51329115  0.64941032  0.90344419    -0.13000
C1183       C  0.32920174  0.51681546  0.89861174    -0.11400
C1184       C  0.35216670  0.51516381  0.92442801    -0.13000
C1185       C  0.45537049  0.34002413  0.89836533    -0.11400
C1186       C  0.45793447  0.36259669  0.92447497    -0.13000
C1187       C  0.49766150  0.07810014  0.63275671    -0.11400
C1188       C  0.50234272  0.10148889  0.65770745    -0.13000
C1189       C  0.63675264  0.47403715  0.89490666    -0.11400
C1190       C  0.61494031  0.47425120  0.92177753    -0.13000
C1191       C  0.88954217  0.51497629  0.67242435    -0.11400
C1192       C  0.91570771  0.51255124  0.64996624    -0.13000
C1193       C  0.26160979  0.44425860  0.17826795    -0.14600
C1194       C  0.28678805  0.41666149  0.18719688    -0.29800
H1195       H  0.23164054  0.44268333  0.18715256     0.14400
H1196       H  0.31670426  0.41951971  0.17822652     0.15000
C1197       C  0.35344943  0.47769869  0.04440705    -0.11400
C1198       C  0.32250710  0.48006481  0.05945707    -0.13000
C1199       C  0.23216596  0.43073476  0.29464002    -0.14600
C1200       C  0.21771934  0.39678115  0.30847031    -0.29800
H1201       H  0.25583908  0.43016379  0.27428376     0.14400
H1202       H  0.19332720  0.39801674  0.32793595     0.15000
C1203       C  0.12489112  0.50208247  0.35094051    -0.11400
C1204       C  0.09722993  0.50255108  0.37200980    -0.13000
C1205       C  0.38624311  0.30912337  0.23973820    -0.14600
C1206       C  0.41996857  0.29483011  0.25445394    -0.29800
H1207       H  0.38827503  0.32928707  0.21604164     0.14400
H1208       H  0.41878442  0.27390551  0.27751460     0.15000
C1209       C  0.49326961  0.35110423  0.14830440    -0.11400
C1210       C  0.49445914  0.37182117  0.12049438    -0.13000
C1211       C  0.40354922  0.18979813  0.30652518    -0.14600
C1212       C  0.43528002  0.18730383  0.28492622    -0.29800
H1213       H  0.40363957  0.17724991  0.33517531     0.14400
H1214       H  0.43682953  0.20010121  0.25651209     0.15000
C1215       C  0.46681284  0.06204724  0.33348816    -0.11400
C1216       C  0.46240238  0.04154449  0.36072468    -0.13000
C1217       C  0.20712098  0.89687187  0.28499317    -0.14600
C1218       C  0.21256352  0.93047643  0.26492713    -0.29800
H1219       H  0.19610638  0.89931845  0.31408324     0.14400
H1220       H  0.22569452  0.92935654  0.23665827     0.15000
C1221       C  0.33986085  0.90619910  0.22215582    -0.14600
C1222       C  0.34310286  0.93480483  0.24762172    -0.29800
H1223       H  0.34949117  0.91015244  0.19268279     0.14400
H1224       H  0.33227866  0.93172167  0.27675477     0.15000
C1225       C  0.08437429  0.71984523  0.22341561    -0.14600
C1226       C  0.10844687  0.74285799  0.20331058    -0.29800
H1227       H  0.09379585  0.70808679  0.25075014     0.14400
H1228       H  0.09947589  0.75544100  0.17621714     0.15000
C1229       C  0.08792414  0.80982634  0.31472876    -0.14600
C1230       C  0.05554801  0.79245836  0.30155209    -0.29800
H1231       H  0.08582228  0.83585235  0.33192047     0.14400
H1232       H  0.05733072  0.76742657  0.28303357     0.15000
C1233       C  0.28382296  0.81265993  0.12400306    -0.14600
C1234       C  0.27551399  0.79588853  0.09012751    -0.29800
H1235       H  0.30707135  0.83360834  0.12563513     0.14400
H1236       H  0.25254702  0.77478282  0.08900208     0.15000
C1237       C  0.19709951  0.69910655  0.09066739    -0.14600
C1238       C  0.21765520  0.70584007  0.05853300    -0.29800
H1239       H  0.16772984  0.68835291  0.08802577     0.14400
H1240       H  0.24682428  0.71703807  0.06006436     0.15000
C1241       C  0.38383406  0.69037064  0.23429316    -0.14600
C1242       C  0.40947689  0.71201217  0.21441863    -0.29800
H1243       H  0.39179632  0.66208223  0.24468374     0.14400
H1244       H  0.40155747  0.74080601  0.20546415     0.15000
C1245       C  0.44691959  0.78933427  0.29445283    -0.14600
C1246       C  0.41418504  0.79836051  0.31303570    -0.29800
H1247       H  0.44597933  0.77291086  0.26789278     0.14400
H1248       H  0.41592575  0.81349670  0.34036035     0.15000
C1249       C  0.21127407  0.61095523  0.30172408    -0.14600
C1250       C  0.23036489  0.57729947  0.29459975    -0.29800
H1251       H  0.18240769  0.60901896  0.31359963     0.14400
H1252       H  0.25829783  0.57836045  0.28061692     0.15000
C1253       C  0.27693180  0.58984770  0.18338922    -0.14600
C1254       C  0.28505319  0.57898851  0.14743927    -0.29800
H1255       H  0.26933588  0.56868896  0.20506627     0.14400
H1256       H  0.29056269  0.60047524  0.12541937     0.15000
C1257       C  0.27487834  0.79126455  0.41920984    -0.14600
C1258       C  0.29367223  0.76477042  0.39794927    -0.29800
H1259       H  0.25072057  0.80653256  0.40659973     0.14400
H1260       H  0.31803762  0.74925503  0.40977599     0.15000
C1261       C  0.19347094  0.72226667  0.44804080    -0.14600
C1262       C  0.17981286  0.70544783  0.41572751    -0.29800
H1263       H  0.21231331  0.74717031  0.44635472     0.14400
H1264       H  0.16233208  0.67952241  0.41774456     0.15000
C1265       C  0.88602591  0.28270578  0.21001213    -0.14600
C1266       C  0.91969803  0.26331796  0.21723386    -0.29800
H1267       H  0.88846718  0.31116400  0.19746573     0.14400
H1268       H  0.91834754  0.23584301  0.23190960     0.15000
C1269       C  0.91729004  0.20687333  0.36364697    -0.14600
C1270       C  0.90502088  0.21489686  0.32810377    -0.29800
H1271       H  0.89663759  0.20281737  0.38679601     0.14400
H1272       H  0.92556442  0.22107393  0.30537671     0.15000
C1273       C  0.78039551  0.08911972  0.30064091    -0.14600
C1274       C  0.80195428  0.11586415  0.28227808    -0.29800
H1275       H  0.75029026  0.09501960  0.30663495     0.14400
H1276       H  0.83154360  0.10961213  0.27437301     0.15000
C1277       C  0.69980931  0.05629881  0.22366714    -0.14600
C1278       C  0.68652404  0.08821369  0.20609837    -0.29800
H1279       H  0.71851182  0.05878860  0.24859587     0.14400
H1280       H  0.66924285  0.08541051  0.18014999     0.15000
C1281       C  0.72447917  0.20327307  0.11750150    -0.14600
C1282       C  0.69617758  0.21997681  0.09651700    -0.29800
H1283       H  0.74061217  0.17926635  0.10585491     0.14400
H1284       H  0.68029126  0.24380361  0.10890944     0.15000
C1285       C  0.79011253  0.31586216  0.09653820    -0.14600
C1286       C  0.77190613  0.30116958  0.06524422    -0.29800
H1287       H  0.81614713  0.33298652  0.09305190     0.14400
H1288       H  0.74687219  0.28263669  0.06856094     0.15000
C1289       C  0.60081316  0.29999613  0.23211041    -0.14600
C1290       C  0.56754365  0.29306887  0.25223726    -0.29800
H1291       H  0.59813933  0.31237783  0.20361818     0.14400
H1292       H  0.56906893  0.27876655  0.27988377     0.15000
C1293       C  0.56951065  0.15299293  0.31282566    -0.14600
C1294       C  0.58253968  0.18604073  0.29837840    -0.29800
H1295       H  0.58965500  0.13053782  0.32092120     0.14400
H1296       H  0.56236540  0.20740071  0.28786185     0.15000
C1297       C  0.76023551  0.39089925  0.31286935    -0.14600
C1298       C  0.78185374  0.41596958  0.29258768    -0.29800
H1299       H  0.74935075  0.39854684  0.34110050     0.14400
H1300       H  0.79149176  0.40823955  0.26392638     0.15000
C1301       C  0.70910575  0.44684454  0.21307883    -0.14600
C1302       C  0.69203633  0.41468674  0.19900272    -0.29800
H1303       H  0.73390127  0.44481776  0.23198164     0.14400
H1304       H  0.66615029  0.41713544  0.18154574     0.15000
C1305       C  0.68475445  0.22446216  0.39452152    -0.14600
C1306       C  0.70534702  0.20462300  0.42080805    -0.29800
H1307       H  0.65542566  0.23316775  0.40090369     0.14400
H1308       H  0.73529994  0.19787690  0.41490804     0.15000
C1309       C  0.79943405  0.30219195  0.42315161    -0.14600
C1310       C  0.78586576  0.28385178  0.45456931    -0.29800
H1311       H  0.81632285  0.32836521  0.42661439     0.14400
H1312       H  0.76748103  0.25870057  0.45136364     0.15000
C1313       C  0.07976125  0.77901670  0.71034172    -0.14600
C1314       C  0.10294139  0.80051460  0.73301309    -0.29800
H1315       H  0.09054659  0.75257166  0.69778418     0.14400
H1316       H  0.09234438  0.82680389  0.74604902     0.15000
C1317       C  0.04710876  0.69821231  0.78301547    -0.14600
C1318       C  0.07994106  0.68509971  0.79897640    -0.29800
H1319       H  0.04804333  0.71690322  0.75808363     0.14400
H1320       H  0.07843171  0.66782967  0.82495357     0.15000
C1321       C  0.38301672  0.77425659  0.70663268    -0.14600
C1322       C  0.40463291  0.79774591  0.72880429    -0.29800
H1323       H  0.39463357  0.76187929  0.68044409     0.14400
H1324       H  0.39277220  0.80958969  0.75514696     0.15000
C1325       C  0.43714716  0.71631243  0.80748170    -0.14600
C1326       C  0.40408316  0.69990932  0.81968386    -0.29800
H1327       H  0.43635089  0.74132366  0.78885486     0.14400
H1328       H  0.40527626  0.67393216  0.83695926     0.15000
C1329       C  0.18251740  0.72341493  0.88652790    -0.14600
C1330       C  0.19936382  0.73242258  0.92018277    -0.29800
H1331       H  0.16103331  0.70062915  0.88542127     0.14400
H1332       H  0.22119533  0.75479032  0.92120701     0.15000
C1333       C  0.30672148  0.79495426  0.91840987    -0.14600
C1334       C  0.29725247  0.77629957  0.95103962    -0.29800
H1335       H  0.32131932  0.82261688  0.92040022     0.14400
H1336       H  0.28173052  0.74917370  0.95011273     0.15000
C1337       C  0.27006820  0.88399521  0.81663464    -0.14600
C1338       C  0.26125756  0.91824124  0.80119768    -0.29800
H1339       H  0.29363348  0.88222172  0.83713804     0.14400
H1340       H  0.23795968  0.91993608  0.78055555     0.15000
C1341       C  0.19619739  0.91566121  0.69588664    -0.14600
C1342       C  0.21460481  0.94790860  0.70763751    -0.29800
H1343       H  0.16798203  0.91806947  0.68247768     0.14400
H1344       H  0.24245086  0.94639264  0.72171162     0.15000
C1345       C  0.29151921  0.61212233  0.77202324    -0.14600
C1346       C  0.27135771  0.59086383  0.79732121    -0.29800
H1347       H  0.31580684  0.60003894  0.75656330     0.14400
H1348       H  0.24727635  0.60342122  0.81275496     0.15000
C1349       C  0.17984442  0.58961056  0.69870666    -0.14600
C1350       C  0.19396931  0.55656611  0.71335297    -0.29800
H1351       H  0.16211540  0.58840957  0.67294138     0.14400
H1352       H  0.21335229  0.55732836  0.73788359     0.15000
C1353       C  0.20135097  0.72499756  0.58980273    -0.14600
C1354       C  0.22208973  0.70282924  0.61373030    -0.29800
H1355       H  0.19154774  0.75309110  0.59918534     0.14400
H1356       H  0.23267812  0.67501667  0.60435864     0.15000
C1357       C  0.29321401  0.81734055  0.59350303    -0.14600
C1358       C  0.27749902  0.80216790  0.56121735    -0.29800
H1359       H  0.31846876  0.83580586  0.59131602     0.14400
H1360       H  0.25344618  0.78224657  0.56315522     0.15000
C1361       C  0.26317602  0.21006450  0.89785640    -0.14600
C1362       C  0.24531008  0.21773696  0.93237084    -0.29800
H1363       H  0.29127086  0.19651611  0.89926302     0.14400
H1364       H  0.21837433  0.23349098  0.93226557     0.15000
C1365       C  0.20164772  0.34482779  0.90656423    -0.14600
C1366       C  0.22934339  0.35028464  0.93292268    -0.29800
H1367       H  0.17224555  0.35392969  0.91218705     0.14400
H1368       H  0.25858771  0.34039049  0.92795737     0.15000
C1369       C  0.19232314  0.08357799  0.74457507    -0.14600
C1370       C  0.17161485  0.11599986  0.74196746    -0.29800
H1371       H  0.21703748  0.08332358  0.76339191     0.14400
H1372       H  0.14616537  0.11627077  0.72374179     0.15000
C1373       C  0.28761048  0.05751827  0.78673663    -0.14600
C1374       C  0.29598783  0.08980867  0.80693695    -0.29800
H1375       H  0.27504812  0.05911482  0.75825615     0.14400
H1376       H  0.30873469  0.08743642  0.83538819     0.15000
C1377       C  0.06981001  0.29874362  0.78619507    -0.14600
C1378       C  0.09625788  0.28261932  0.80963950    -0.29800
H1379       H  0.07631219  0.30277337  0.75596990     0.14400
H1380       H  0.08932806  0.27693250  0.83952819     0.15000
C1381       C  0.06569083  0.19852125  0.70170755    -0.14600
C1382       C  0.03321101  0.21760896  0.71094192    -0.29800
H1383       H  0.06333047  0.17141044  0.68625525     0.14400
H1384       H  0.03452297  0.24388121  0.72778132     0.15000
C1385       C  0.39632880  0.27789211  0.78853741    -0.14600
C1386       C  0.37383236  0.29844217  0.76456388    -0.29800
H1387       H  0.38515110  0.25148713  0.80094723     0.14400
H1388       H  0.38428067  0.32494057  0.75173872     0.15000
C1389       C  0.42512303  0.19600697  0.72290744    -0.14600
C1390       C  0.39262227  0.18313515  0.70535308    -0.29800
H1391       H  0.42329037  0.21435726  0.74803634     0.14400
H1392       H  0.39478309  0.16601272  0.67929582     0.15000
C1393       C  0.20489810  0.38166601  0.68293876    -0.14600
C1394       C  0.21412935  0.41620795  0.69808253    -0.29800
H1395       H  0.18201576  0.37985416  0.66166765     0.14400
H1396       H  0.23656015  0.41778943  0.71970102     0.15000
C1397       C  0.27041406  0.44981698  0.79097514    -0.14600
C1398       C  0.28961085  0.41690168  0.79713530    -0.29800
H1399       H  0.24215347  0.44960683  0.77759910     0.14400
H1400       H  0.31816654  0.41822427  0.81003619     0.15000
C1401       C  0.27650122  0.21562089  0.61172046    -0.14600
C1402       C  0.27505598  0.23766766  0.57926422    -0.29800
H1403       H  0.28355565  0.18541409  0.60840740     0.14400
H1404       H  0.26539413  0.26723565  0.58135042     0.15000
C1405       C  0.15792540  0.27972631  0.59055905    -0.14600
C1406       C  0.12231101  0.28811314  0.57851765    -0.29800
H1407       H  0.18053171  0.27306218  0.57004469     0.14400
H1408       H  0.09934414  0.29270580  0.59924479     0.15000
C1409       C  0.69175322  0.08481132  0.79093940    -0.14600
C1410       C  0.71334994  0.10960765  0.81153195    -0.29800
H1411       H  0.68103059  0.09297669  0.76277363     0.14400
H1412       H  0.72501879  0.10131266  0.83927799     0.15000
C1413       C  0.78497779  0.08659370  0.69662996    -0.14600
C1414       C  0.76871586  0.05342902  0.70874120    -0.29800
H1415       H  0.81189283  0.08553386  0.68071585     0.14400
H1416       H  0.74277438  0.05404815  0.72616220     0.15000
C1417       C  0.67171032  0.38175447  0.78623434    -0.14600
C1418       C  0.68894678  0.41559864  0.77859372    -0.29800
H1419       H  0.64945948  0.38040935  0.80812367     0.14400
H1420       H  0.71128963  0.41674708  0.75695458     0.15000
C1421       C  0.78481990  0.44506429  0.73145630    -0.14600
C1422       C  0.79250782  0.41252068  0.71174590    -0.29800
H1423       H  0.77052866  0.44404027  0.75912365     0.14400
H1424       H  0.80644695  0.41461571  0.68385115     0.15000
C1425       C  0.78478566  0.27027961  0.89804079    -0.14600
C1426       C  0.76310888  0.29038041  0.92310422    -0.29800
H1427       H  0.81319745  0.26025395  0.90637097     0.14400
H1428       H  0.73437301  0.29958094  0.91492786     0.15000
C1429       C  0.67153758  0.19761168  0.92216327    -0.14600
C1430       C  0.68564586  0.21473238  0.95424451    -0.29800
H1431       H  0.65423269  0.17163043  0.92479394     0.14400
H1432       H  0.70435937  0.23968746  0.95196664     0.15000
C1433       C  0.87329233  0.20468698  0.73573327    -0.14600
C1434       C  0.89032931  0.21921508  0.70402118    -0.29800
H1435       H  0.88902864  0.18596653  0.75508657     0.14400
H1436       H  0.87356013  0.23661319  0.68425299     0.15000
C1437       C  0.89461534  0.31664398  0.80478654    -0.14600
C1438       C  0.92716811  0.30612054  0.78627883    -0.29800
H1439       H  0.89685434  0.33274779  0.83149783     0.14400
H1440       H  0.92553082  0.28846002  0.76053993     0.15000
C1441       C  0.59296007  0.22374039  0.70710624    -0.14600
C1442       C  0.56809233  0.20263984  0.72821081    -0.29800
H1443       H  0.58417902  0.23501677  0.67936545     0.14400
H1444       H  0.57682021  0.19228614  0.75632072     0.15000
C1445       C  0.53764842  0.27767761  0.80538390    -0.14600
C1446       C  0.56939630  0.29317643  0.82177095    -0.29800
H1447       H  0.54012289  0.25391277  0.78533346     0.14400
H1448       H  0.56661717  0.31821591  0.84028035     0.15000
C1449       C  0.75070598  0.29871754  0.61986082    -0.14600
C1450       C  0.77096784  0.27648645  0.59550998    -0.29800
H1451       H  0.74098034  0.32702164  0.61111472     0.14400
H1452       H  0.78042233  0.24822349  0.60458313     0.15000
C1453       C  0.70349297  0.19253553  0.56273208    -0.14600
C1454       C  0.68594221  0.18058122  0.59537737    -0.29800
H1455       H  0.72928399  0.21023046  0.56436811     0.14400
H1456       H  0.65930559  0.16414901  0.59331408     0.15000
C1457       C  0.80146202  0.72760023  0.12237225    -0.14600
C1458       C  0.77826747  0.70883191  0.09750051    -0.29800
H1459       H  0.83083984  0.73506634  0.11450829     0.14400
H1460       H  0.74856399  0.70279439  0.10525107     0.15000
C1461       C  0.69667103  0.78285649  0.06662784    -0.14600
C1462       C  0.68425629  0.79979358  0.09924419    -0.29800
H1463       H  0.71593312  0.75839026  0.06782024     0.14400
H1464       H  0.66636925  0.82531163  0.09745316     0.15000
C1465       C  0.77305343  0.69983552  0.39921939    -0.14600
C1466       C  0.79469756  0.72123002  0.42338297    -0.29800
H1467       H  0.76128575  0.67238863  0.40846720     0.14400
H1468       H  0.80535192  0.74916810  0.41429212     0.15000
C1469       C  0.71774656  0.79763273  0.45538259    -0.14600
C1470       C  0.70281446  0.81356667  0.42332805    -0.29800
H1471       H  0.74199082  0.77812365  0.45348589     0.14400
H1472       H  0.67718485  0.83129165  0.42557576     0.15000
C1473       C  0.91332429  0.78169004  0.30241747    -0.14600
C1474       C  0.88987402  0.80167888  0.27904817    -0.29800
H1475       H  0.90268004  0.75586745  0.31644431     0.14400
H1476       H  0.90010876  0.82757830  0.26488491     0.15000
C1477       C  0.94308556  0.70470681  0.22446677    -0.14600
C1478       C  0.91082710  0.68884035  0.20952176    -0.29800
H1479       H  0.94136601  0.72423563  0.24875755     0.14400
H1480       H  0.91275659  0.67077039  0.18408418     0.15000
C1481       C  0.72866446  0.88948058  0.20841684    -0.14600
C1482       C  0.70976840  0.91488929  0.23058007    -0.29800
H1483       H  0.73791274  0.89734196  0.17965932     0.14400
H1484       H  0.70111796  0.90689279  0.25946067     0.15000
C1485       C  0.79857372  0.91467282  0.32364015    -0.14600
C1486       C  0.78009808  0.94706338  0.31268244    -0.29800
H1487       H  0.82604491  0.91700515  0.33854056     0.14400
H1488       H  0.75341671  0.94526148  0.29644909     0.15000
C1489       C  0.69790122  0.61195085  0.23998161    -0.14600
C1490       C  0.71716862  0.58931174  0.21513146    -0.29800
H1491       H  0.67248915  0.60122037  0.25474578     0.14400
H1492       H  0.74252015  0.60050759  0.20057399     0.15000
C1493       C  0.81116397  0.58913123  0.30864381    -0.14600
C1494       C  0.79715769  0.55690705  0.29196473    -0.29800
H1495       H  0.82774237  0.58700976  0.33508309     0.14400
H1496       H  0.77915583  0.55865903  0.26647226     0.15000
C1497       C  0.61093349  0.77116059  0.31076325    -0.14600
C1498       C  0.58871192  0.79495433  0.28998674    -0.29800
H1499       H  0.59956457  0.75672354  0.33600600     0.14400
H1500       H  0.60046751  0.80937968  0.26490095     0.15000
C1501       C  0.58577566  0.70179728  0.19676097    -0.14600
C1502       C  0.55218399  0.71735813  0.20859989    -0.29800
H1503       H  0.58493819  0.67543257  0.17996247     0.14400
H1504       H  0.55234312  0.74275424  0.22679010     0.15000
C1505       C  0.79353182  0.88838502  0.74163295    -0.14600
C1506       C  0.77188059  0.91211554  0.72001592    -0.29800
H1507       H  0.82126509  0.89778615  0.75280919     0.14400
H1508       H  0.74374423  0.90266895  0.70991302     0.15000
C1509       C  0.67502424  0.91063632  0.81290614    -0.14600
C1510       C  0.68585361  0.94357057  0.79554664    -0.29800
H1511       H  0.65847255  0.91192610  0.83937619     0.14400
H1512       H  0.70358007  0.94262182  0.76985415     0.15000
C1513       C  0.88132259  0.72807773  0.81203839    -0.14600
C1514       C  0.90538132  0.70852238  0.78886414    -0.29800
H1515       H  0.89076038  0.73778394  0.84021819     0.14400
H1516       H  0.89584177  0.69979414  0.76042284     0.15000
C1517       C  0.90441619  0.79821500  0.69614268    -0.14600
C1518       C  0.93714531  0.78011060  0.70660188    -0.29800
H1519       H  0.90625290  0.82484495  0.67993376     0.14400
H1520       H  0.93591217  0.75434878  0.72411976     0.15000
C1521       C  0.72028620  0.79851029  0.90178154    -0.14600
C1522       C  0.69624583  0.77816985  0.92447883    -0.29800
H1523       H  0.73426571  0.82438974  0.91251246     0.14400
H1524       H  0.68261091  0.75224301  0.91339797     0.15000
C1525       C  0.79034370  0.68245698  0.92389714    -0.14600
C1526       C  0.77284106  0.69300308  0.95686889    -0.29800
H1527       H  0.81747947  0.66701988  0.92534666     0.14400
H1528       H  0.74662941  0.70994667  0.95592177     0.15000
C1529       C  0.60344305  0.69642065  0.78176070    -0.14600
C1530       C  0.57899110  0.71810514  0.80232487    -0.29800
H1531       H  0.59446670  0.66861431  0.77056997     0.14400
H1532       H  0.58797785  0.74619606  0.81272817     0.15000
C1533       C  0.57933960  0.81394632  0.71411198    -0.14600
C1534       C  0.54646146  0.80290082  0.73146592    -0.29800
H1535       H  0.57789415  0.83071167  0.68780342     0.14400
H1536       H  0.54721431  0.78479495  0.75684608     0.15000
C1537       C  0.76255433  0.60981762  0.71127027    -0.14600
C1538       C  0.78687911  0.58746679  0.73158020    -0.29800
H1539       H  0.74771228  0.59845834  0.68617447     0.14400
H1540       H  0.80142260  0.59930587  0.75664119     0.15000
C1541       C  0.69231179  0.58662486  0.82159610    -0.14600
C1542       C  0.70709172  0.55456464  0.80564795    -0.29800
H1543       H  0.66641345  0.58451915  0.83904074     0.14400
H1544       H  0.73165213  0.55628570  0.78643887     0.15000
C1545       C  0.68287928  0.77612106  0.62757280    -0.14600
C1546       C  0.70089788  0.76950342  0.59402985    -0.29800
H1547       H  0.65966782  0.79693999  0.62876659     0.14400
H1548       H  0.72427268  0.74898932  0.59297953     0.15000
C1549       C  0.80717174  0.70378990  0.59824357    -0.14600
C1550       C  0.79980996  0.72285964  0.56528783    -0.29800
H1551       H  0.82097178  0.67583409  0.59673899     0.14400
H1552       H  0.78535386  0.75044206  0.56592456     0.15000
loop_ 
_geom_bond_atom_site_label_1 
_geom_bond_atom_site_label_2 
_geom_bond_distance 
_geom_bond_site_symmetry_2 
_ccdc_geom_bond_type 
O1           C28   1.274       .  A
O1          Mn27   2.104       .  S
C2           O35   1.274       .  A
C2           O32   1.274       .  A
C2         C1549   1.483       .  S
O3          Mn10   2.174       .  S
O3          Mn21   2.127       .  S
O3          Mn25   2.171       .  S
O3          Mn27   2.123       .  S
O4           C14   1.270       .  A
O4          Mn38   2.093       .  S
O5           C28   1.273       .  A
O5          Mn21   2.103       .  S
O6           C33   1.255       .  A
O6          Mn25   2.122       .  S
O7          Mn38   1.958       .  S
O7          Mn27   1.970       .  S
O7           C23   1.217       .  S
C8           O11   1.254       .  A
C8         C1505   1.479       .  S
C8           O34   1.216       .  S
O9          Mn29   2.124       .  S
O9          Mn10   2.180       .  S
O9          Mn43   2.127       .  S
O9          Mn25   2.173       .  S
Mn10         O39   2.114       .  S
Mn10         O15   2.109       .  S
Mn10         O42   2.124       .  S
Mn10         O16   2.165       .  S
O11         Mn25   2.122       .  S
O12          C14   1.273       .  A
O12         Mn19   2.100       .  S
C13          O39   1.253       .  A
C13        C1545   1.468       .  S
C13          O26   1.217       .  S
C14        C1517   1.478       .  S
O15          C40   1.252       .  A
O16         Mn19   2.127       .  S
O16         Mn38   2.121       .  S
O16         Mn25   2.177       .  S
O17         Mn21   1.965       .  S
O17         Mn43   1.949       .  S
O17          C40   1.218       .  S
C18          O44   1.272       .  A
C18          O20   1.272       .  A
C18        C1509   1.481       .  S
Mn19         O32   2.104       .  S
Mn19         O34   1.966       .  S
Mn19         O26   1.963       .  S
O20         Mn43   2.097       .  S
Mn21         O37   2.088       .  S
Mn21         O31   1.952       .  S
O22          C24   1.271       .  A
O22         Mn27   2.097       .  S
C23          O41   1.254       .  A
C23        C1513   1.478       .  S
C24          O37   1.271       .  A
C24        C1541   1.474       .  S
Mn25         O41   2.119       .  S
O26         Mn29   1.962       .  S
Mn27         O45   1.951       .  S
C28        C1525   1.484       .  S
Mn29         O36   2.088       .  S
Mn29         O44   2.100       .  S
Mn29         O34   1.948       .  S
C30          O36   1.270       .  A
C30          O46   1.271       .  A
C30        C1533   1.473       .  S
O31         Mn43   1.970       .  S
O31          C33   1.218       .  S
C33        C1521   1.483       .  S
O35         Mn38   2.101       .  S
Mn38         O45   1.967       .  S
C40        C1529   1.473       .  S
O42          C47   1.254       .  A
Mn43         O46   2.096       .  S
O45          C47   1.217       .  S
C47        C1537   1.485       .  S
O48          C75   1.271       .  A
O48         Mn74   2.093       .  S
C49          O82   1.273       .  A
C49          O79   1.274       .  A
C49        C1501   1.485       .  S
O50         Mn57   2.166       .  S
O50         Mn68   2.124       .  S
O50         Mn72   2.169       .  S
O50         Mn74   2.127       .  S
O51          C61   1.270       .  A
O51         Mn85   2.093       .  S
O52          C75   1.271       .  A
O52         Mn68   2.092       .  S
O53          C80   1.253       .  A
O53         Mn72   2.113       .  S
O54         Mn85   1.950       .  S
O54         Mn74   1.958       .  S
O54          C70   1.216       .  S
C55          O58   1.253       .  A
C55        C1481   1.477       .  S
C55          O81   1.220       .  S
O56         Mn76   2.123       .  S
O56         Mn57   2.174       .  S
O56         Mn90   2.128       .  S
O56         Mn72   2.172       .  S
Mn57         O86   2.112       .  S
Mn57         O62   2.117       .  S
Mn57         O89   2.121       .  S
Mn57         O63   2.176       .  S
O58         Mn72   2.111       .  S
O59          C61   1.272       .  A
O59         Mn66   2.094       .  S
C60          O86   1.252       .  A
C60        C1497   1.474       .  S
C60          O73   1.216       .  S
C61        C1462   1.475       .  S
O62          C87   1.254       .  A
O63         Mn66   2.128       .  S
O63         Mn85   2.120       .  S
O63         Mn72   2.172       .  S
O64         Mn68   1.967       .  S
O64         Mn90   1.957       .  S
O64          C87   1.218       .  S
C65          O91   1.270       .  A
C65          O67   1.275       .  A
C65        C1485   1.482       .  S
Mn66         O79   2.114       .  S
Mn66         O81   1.975       .  S
Mn66         O73   1.945       .  S
O67         Mn90   2.109       .  S
Mn68         O84   2.100       .  S
Mn68         O78   1.955       .  S
O69          C71   1.270       .  A
O69         Mn74   2.087       .  S
C70          O88   1.254       .  A
C70        C1457   1.477       .  S
C71          O84   1.274       .  A
C71        C1493   1.475       .  S
Mn72         O88   2.121       .  S
O73         Mn76   1.963       .  S
Mn74         O92   1.950       .  S
C75        C1478   1.474       .  S
Mn76         O83   2.097       .  S
Mn76         O91   2.092       .  S
Mn76         O81   1.957       .  S
C77          O83   1.273       .  A
C77          O93   1.271       .  A
C77        C1470   1.478       .  S
O78         Mn90   1.971       .  S
O78          C80   1.218       .  S
C80        C1474   1.479       .  S
O82         Mn85   2.096       .  S
Mn85         O92   1.967       .  S
C87        C1465   1.480       .  S
O89          C94   1.254       .  A
Mn90         O93   2.099       .  S
O92          C94   1.217       .  S
C94        C1489   1.483       .  S
O95         C122   1.275       .  A
O95        Mn121   2.112       .  S
C96         O129   1.276       .  A
C96         O126   1.271       .  A
C96        C1454   1.487       .  S
O97        Mn104   2.173       .  S
O97        Mn115   2.130       .  S
O97        Mn119   2.174       .  S
O97        Mn121   2.129       .  S
O98         C108   1.273       .  A
O98        Mn132   2.105       .  S
O99         C122   1.269       .  A
O99        Mn115   2.089       .  S
O100        C127   1.254       .  A
O100       Mn119   2.120       .  S
O101       Mn132   1.957       .  S
O101       Mn121   1.964       .  S
O101        C117   1.218       .  S
C102        O105   1.255       .  A
C102       C1433   1.485       .  S
C102        O128   1.214       .  S
O103       Mn123   2.120       .  S
O103       Mn104   2.166       .  S
O103       Mn137   2.125       .  S
O103       Mn119   2.172       .  S
Mn104       O133   2.119       .  S
Mn104       O109   2.122       .  S
Mn104       O136   2.118       .  S
Mn104       O110   2.178       .  S
O105       Mn119   2.134       .  S
O106        C108   1.273       .  A
O106       Mn113   2.101       .  S
C107        O133   1.254       .  A
C107       C1449   1.477       .  S
C107        O120   1.216       .  S
C108       C1413   1.483       .  S
O109        C134   1.255       .  A
O110       Mn113   2.120       .  S
O110       Mn132   2.128       .  S
O110       Mn119   2.180       .  S
O111       Mn115   1.959       .  S
O111       Mn137   1.963       .  S
O111        C134   1.216       .  S
C112        O138   1.271       .  A
C112        O114   1.275       .  A
C112       C1437   1.482       .  S
Mn113       O126   2.098       .  S
Mn113       O128   1.955       .  S
Mn113       O120   1.956       .  S
O114       Mn137   2.107       .  S
Mn115       O131   2.095       .  S
Mn115       O125   1.951       .  S
O116        C118   1.271       .  A
O116       Mn121   2.093       .  S
C117        O135   1.255       .  A
C117       C1410   1.475       .  S
C118        O131   1.272       .  A
C118       C1446   1.475       .  S
Mn119       O135   2.114       .  S
O120       Mn123   1.970       .  S
Mn121       O139   1.962       .  S
C122       C1429   1.482       .  S
Mn123       O130   2.099       .  S
Mn123       O138   2.095       .  S
Mn123       O128   1.941       .  S
C124        O130   1.274       .  A
C124        O140   1.272       .  A
C124       C1422   1.479       .  S
O125       Mn137   1.970       .  S
O125        C127   1.217       .  S
C127       C1425   1.481       .  S
O129       Mn132   2.113       .  S
Mn132       O139   1.977       .  S
C134       C1417   1.471       .  S
O136        C141   1.255       .  A
Mn137       O140   2.096       .  S
O139        C141   1.220       .  S
C141       C1441   1.485       .  S
O142        C169   1.269       .  A
O142       Mn168   2.084       .  S
C143        O176   1.271       .  A
C143        O173   1.262       .  A
C143       C1405   1.453       .  S
O144       Mn151   2.171       .  S
O144       Mn162   2.119       .  S
O144       Mn166   2.163       .  S
O144       Mn168   2.134       .  S
O145        C155   1.271       .  A
O145       Mn179   2.096       .  S
O146        C169   1.269       .  A
O146       Mn162   2.062       .  S
O147        C174   1.264       .  A
O147       Mn166   2.182       .  S
O148       Mn179   1.951       .  S
O148       Mn168   1.971       .  S
O148        C164   1.217       .  S
C149        O152   1.260       .  A
C149       C1370   1.471       .  S
C149        O175   1.219       .  S
O150       Mn170   2.127       .  S
O150       Mn151   2.189       .  S
O150       Mn184   2.128       .  S
O150       Mn166   2.181       .  S
Mn151       O180   2.153       .  S
Mn151       O156   2.134       .  S
Mn151       O183   2.133       .  S
Mn151       O157   2.177       .  S
O152       Mn166   2.127       .  S
O153        C155   1.273       .  A
O153       Mn160   2.101       .  S
C154        O180   1.258       .  A
C154       C1401   1.509       .  S
C154        O167   1.224       .  S
C155       C1381   1.478       .  S
O156        C181   1.259       .  A
O157       Mn160   2.128       .  S
O157       Mn179   2.134       .  S
O157       Mn166   2.191       .  S
O158       Mn162   1.944       .  S
O158       Mn184   1.943       .  S
O158        C181   1.218       .  S
C159        O185   1.268       .  A
C159        O161   1.277       .  A
C159       C1374   1.483       .  S
Mn160       O173   2.057       .  S
Mn160       O175   1.947       .  S
Mn160       O167   1.962       .  S
O161       Mn184   2.116       .  S
Mn162       O178   2.091       .  S
Mn162       O172   1.984       .  S
O163        C165   1.275       .  A
O163       Mn168   2.101       .  S
C164        O182   1.257       .  A
C164       C1378   1.484       .  S
C165        O178   1.272       .  A
C165       C1398   1.475       .  S
Mn166       O182   2.128       .  S
O167       Mn170   1.971       .  S
Mn168       O186   1.959       .  S
C169       C1365   1.464       .  S
Mn170       O177   2.108       .  S
Mn170       O185   2.078       .  S
Mn170       O175   1.964       .  S
C171        O177   1.275       .  A
C171        O187   1.268       .  A
C171       C1390   1.481       .  S
O172       Mn184   1.993       .  S
O172        C174   1.225       .  S
C174       C1361   1.527       .  S
O176       Mn179   2.093       .  S
Mn179       O186   1.962       .  S
C181       C1386   1.482       .  S
O183        C188   1.256       .  A
Mn184       O187   2.087       .  S
O186        C188   1.215       .  S
C188       C1393   1.479       .  S
O189        C216   1.273       .  A
O189       Mn215   2.098       .  S
C190        O223   1.275       .  A
C190        O220   1.270       .  A
C190       C1357   1.481       .  S
O191       Mn198   2.179       .  S
O191       Mn209   2.122       .  S
O191       Mn213   2.175       .  S
O191       Mn215   2.118       .  S
O192        C202   1.272       .  A
O192       Mn226   2.093       .  S
O193        C216   1.272       .  A
O193       Mn209   2.098       .  S
O194        C221   1.252       .  A
O194       Mn213   2.107       .  S
O195       Mn226   1.967       .  S
O195       Mn215   1.957       .  S
O195        C211   1.215       .  S
C196        O199   1.254       .  A
C196       C1314   1.481       .  S
C196        O222   1.217       .  S
O197       Mn217   2.124       .  S
O197       Mn198   2.176       .  S
O197       Mn231   2.123       .  S
O197       Mn213   2.181       .  S
Mn198       O227   2.115       .  S
Mn198       O203   2.118       .  S
Mn198       O230   2.124       .  S
Mn198       O204   2.172       .  S
O199       Mn213   2.121       .  S
O200        C202   1.276       .  A
O200       Mn207   2.107       .  S
C201        O227   1.254       .  A
C201       C1354   1.475       .  S
C201        O214   1.218       .  S
C202       C1341   1.481       .  S
O203        C228   1.252       .  A
O204       Mn207   2.122       .  S
O204       Mn226   2.122       .  S
O204       Mn213   2.162       .  S
O205       Mn209   1.956       .  S
O205       Mn231   1.939       .  S
O205        C228   1.215       .  S
C206        O232   1.271       .  A
C206        O208   1.270       .  A
C206       C1318   1.475       .  S
Mn207       O220   2.092       .  S
Mn207       O222   1.970       .  S
Mn207       O214   1.956       .  S
O208       Mn231   2.087       .  S
Mn209       O225   2.097       .  S
Mn209       O219   1.963       .  S
O210        C212   1.271       .  A
O210       Mn215   2.094       .  S
C211        O229   1.254       .  A
C211       C1337   1.469       .  S
C212        O225   1.272       .  A
C212       C1326   1.478       .  S
Mn213       O229   2.122       .  S
O214       Mn217   1.966       .  S
Mn215       O233   1.945       .  S
C216       C1333   1.478       .  S
Mn217       O224   2.105       .  S
Mn217       O232   2.100       .  S
Mn217       O222   1.952       .  S
C218        O224   1.274       .  A
C218        O234   1.272       .  A
C218       C1349   1.484       .  S
O219       Mn231   1.963       .  S
O219        C221   1.217       .  S
C221       C1329   1.463       .  S
O223       Mn226   2.109       .  S
Mn226       O233   1.959       .  S
C228       C1345   1.475       .  S
O230        C235   1.253       .  A
Mn231       O234   2.104       .  S
O233        C235   1.214       .  S
C235       C1321   1.477       .  S
O236        C263   1.271       .  A
O236       Mn262   2.092       .  S
C237        O270   1.271       .  A
C237        O267   1.264       .  A
C237       C1270   1.452       .  S
O238       Mn245   2.183       .  S
O238       Mn256   2.125       .  S
O238       Mn260   2.168       .  S
O238       Mn262   2.136       .  S
O239        C249   1.271       .  A
O239       Mn273   2.090       .  S
O240        C263   1.262       .  A
O240       Mn256   2.052       .  S
O241        C268   1.259       .  A
O241       Mn260   2.160       .  S
O242       Mn273   1.952       .  S
O242       Mn262   1.964       .  S
O242        C258   1.218       .  S
C243        O246   1.260       .  A
C243       C1297   1.482       .  S
C243        O269   1.219       .  S
O244       Mn264   2.129       .  S
O244       Mn245   2.184       .  S
O244       Mn278   2.129       .  S
O244       Mn260   2.184       .  S
Mn245       O274   2.173       .  S
Mn245       O250   2.149       .  S
Mn245       O277   2.135       .  S
Mn245       O251   2.172       .  S
O246       Mn260   2.129       .  S
O247        C249   1.275       .  A
O247       Mn254   2.110       .  S
C248        O274   1.263       .  A
C248       C1265   1.519       .  S
C248        O261   1.224       .  S
C249       C1309   1.481       .  S
O250        C275   1.264       .  A
O251       Mn254   2.130       .  S
O251       Mn273   2.136       .  S
O251       Mn260   2.177       .  S
O252       Mn256   1.952       .  S
O252       Mn278   1.954       .  S
O252        C275   1.218       .  S
C253        O279   1.269       .  A
C253        O255   1.274       .  A
C253       C1302   1.478       .  S
Mn254       O267   2.060       .  S
Mn254       O269   1.954       .  S
Mn254       O261   1.969       .  S
O255       Mn278   2.104       .  S
Mn256       O272   2.107       .  S
Mn256       O266   1.962       .  S
O257        C259   1.271       .  A
O257       Mn262   2.092       .  S
C258        O276   1.256       .  A
C258       C1305   1.489       .  S
C259        O272   1.275       .  A
C259       C1278   1.481       .  S
Mn260       O276   2.129       .  S
O261       Mn264   1.981       .  S
Mn262       O280   1.956       .  S
C263       C1294   1.453       .  S
Mn264       O271   2.113       .  S
Mn264       O279   2.089       .  S
Mn264       O269   1.957       .  S
C265        O271   1.276       .  A
C265        O281   1.267       .  A
C265       C1285   1.477       .  S
O266       Mn278   1.967       .  S
O266        C268   1.222       .  S
C268       C1289   1.509       .  S
O270       Mn273   2.090       .  S
Mn273       O280   1.972       .  S
C275       C1281   1.494       .  S
O277        C282   1.260       .  A
Mn278       O281   2.075       .  S
O280        C282   1.218       .  S
C282       C1274   1.488       .  S
O283        C310   1.274       .  A
O283       Mn309   2.100       .  S
C284        O317   1.272       .  A
C284        O314   1.269       .  A
C284       C1262   1.475       .  S
O285       Mn292   2.171       .  S
O285       Mn303   2.127       .  S
O285       Mn307   2.184       .  S
O285       Mn309   2.125       .  S
O286        C296   1.268       .  A
O286       Mn320   2.082       .  S
O287        C310   1.273       .  A
O287       Mn303   2.095       .  S
O288        C315   1.256       .  A
O288       Mn307   2.125       .  S
O289       Mn320   1.943       .  S
O289       Mn309   1.946       .  S
O289        C305   1.216       .  S
C290        O293   1.263       .  A
C290       C1217   1.520       .  S
C290        O316   1.225       .  S
O291       Mn311   2.121       .  S
O291       Mn292   2.182       .  S
O291       Mn325   2.130       .  S
O291       Mn307   2.175       .  S
Mn292       O321   2.137       .  S
Mn292       O297   2.140       .  S
Mn292       O324   2.159       .  S
Mn292       O298   2.185       .  S
O293       Mn307   2.174       .  S
O294        C296   1.273       .  A
O294       Mn301   2.100       .  S
C295        O321   1.260       .  A
C295       C1258   1.486       .  S
C295        O308   1.218       .  S
C296       C1229   1.475       .  S
O297        C322   1.257       .  A
O298       Mn301   2.128       .  S
O298       Mn320   2.123       .  S
O298       Mn307   2.179       .  S
O299       Mn303   1.964       .  S
O299       Mn325   1.938       .  S
O299        C322   1.214       .  S
C300        O326   1.270       .  A
C300        O302   1.265       .  A
C300       C1221   1.460       .  S
Mn301       O314   2.089       .  S
Mn301       O316   1.984       .  S
Mn301       O308   1.939       .  S
O302       Mn325   2.069       .  S
Mn303       O319   2.090       .  S
Mn303       O313   1.962       .  S
O304        C306   1.263       .  A
O304       Mn309   2.056       .  S
C305        O323   1.260       .  A
C305       C1226   1.483       .  S
C306        O319   1.272       .  A
C306       C1253   1.451       .  S
Mn307       O323   2.140       .  S
O308       Mn311   1.949       .  S
Mn309       O327   1.965       .  S
C310       C1237   1.479       .  S
Mn311       O318   2.090       .  S
Mn311       O326   2.072       .  S
Mn311       O316   1.977       .  S
C312        O318   1.271       .  A
C312        O328   1.273       .  A
C312       C1246   1.474       .  S
O313       Mn325   1.961       .  S
O313        C315   1.216       .  S
C315       C1233   1.474       .  S
O317       Mn320   2.095       .  S
Mn320       O327   1.977       .  S
C322       C1241   1.489       .  S
O324        C329   1.260       .  A
Mn325       O328   2.098       .  S
O327        C329   1.224       .  S
C329       C1249   1.512       .  S
C330       C1293   1.465       .  S
C330        N331   1.360       .  A
C330        N335   1.353       .  A
N331        C332   1.353       .  A
C332       C1212   1.458       .  S
C332        N333   1.356       .  A
N333        C334   1.349       .  A
C334        N335   1.353       .  A
C334       C1215   1.421       .  S
C336       C1290   1.523       .  S
C336        N337   1.384       .  A
C336        N341   1.359       .  A
N337        C338   1.385       .  A
C338       C1206   1.523       .  S
C338        N339   1.360       .  A
N339        C340   1.354       .  A
C340        N341   1.353       .  A
C340       C1209   1.439       .  S
C342       C1199   1.520       .  S
C342        N343   1.382       .  A
C342        N347   1.360       .  A
N343        C344   1.382       .  A
C344       C1250   1.523       .  S
C344        N345   1.361       .  A
N345        C346   1.356       .  A
C346        N347   1.355       .  A
C346       C1203   1.440       .  S
C348       C1254   1.463       .  S
C348        N349   1.353       .  A
C348        N353   1.356       .  A
N349        C350   1.354       .  A
C350        N351   1.353       .  A
C350       C1198   1.422       .  S
N351        C352   1.357       .  A
C352       C1193   1.454       .  S
C352        N353   1.350       .  A
C354       C1421   1.476       .  S
C354        N355   1.356       .  A
C354        N359   1.366       .  A
N355        C356   1.349       .  A
C356        N357   1.353       .  A
C356       C1191   1.428       .  S
N357        C358   1.357       .  A
C358       C1538   1.471       .  S
C358        N359   1.366       .  A
C360       C1542   1.479       .  S
C360        N361   1.357       .  A
C360        N365   1.365       .  A
N361        C362   1.349       .  A
C362        N363   1.353       .  A
C362       C1189   1.431       .  S
N363        C364   1.361       .  A
C364       C1418   1.485       .  S
C364        N365   1.366       .  A
C366       C1389   1.481       .  S
C366        N367   1.353       .  A
C366        N371   1.367       .  A
N367        C368   1.349       .  A
C368        N369   1.354       .  A
C368       C1188   1.424       .  S
N369        C370   1.358       .  A
C370       C1442   1.475       .  S
C370        N371   1.368       .  A
C372       C1385   1.468       .  S
C372        N373   1.365       .  A
C372        N377   1.359       .  A
N373        C374   1.364       .  A
C374       C1445   1.479       .  S
C374        N375   1.356       .  A
N375        C376   1.350       .  A
C376        N377   1.353       .  A
C376       C1185   1.430       .  S
N378        C383   1.352       .  A
N378        C382   1.353       .  A
N378        H410   1.032       .  S
N379        C386   1.349       .  A
N379        C387   1.349       .  A
N380        C385   1.355       .  A
N380        C384   1.355       .  A
N380        H411   1.034       .  S
N381        C388   1.350       .  A
N381        C389   1.349       .  A
C382        C390   1.387       .  A
C382        C398   1.414       .  A
C383        C399   1.416       .  A
C383        C391   1.389       .  A
C384        C392   1.389       .  A
C384        C401   1.417       .  A
C385        C400   1.414       .  A
C385        C393   1.387       .  A
C386        C398   1.408       .  A
C386        C394   1.387       .  A
C387        C401   1.407       .  A
C387        C395   1.387       .  A
C388        C396   1.387       .  A
C388        C399   1.410       .  A
C389        C397   1.387       .  A
C389        C400   1.409       .  A
C390        C391   1.369       .  A
C390        H402   1.082       .  S
C391        H403   1.082       .  S
C392        C393   1.367       .  A
C392        H404   1.082       .  S
C393        H405   1.083       .  S
C394        C395   1.368       .  A
C394        H406   1.083       .  S
C395        H407   1.082       .  S
C396        C397   1.369       .  A
C396        H408   1.083       .  S
C397        H409   1.083       .  S
C398       C1184   1.443       .  S
C399       C1181   1.444       .  S
C400       C1190   1.447       .  S
C401       C1186   1.446       .  S
N412        C417   1.354       .  A
N412        C416   1.356       .  A
N412        H444   1.036       .  S
N413        C420   1.350       .  A
N413        C421   1.350       .  A
N414        C419   1.355       .  A
N414        C418   1.351       .  A
N414        H445   1.036       .  S
N415        C422   1.345       .  A
N415        C423   1.346       .  A
C416        C424   1.387       .  A
C416        C432   1.416       .  A
C417        C433   1.420       .  A
C417        C425   1.390       .  A
C418        C426   1.391       .  A
C418        C435   1.417       .  A
C419        C434   1.409       .  A
C419        C427   1.383       .  A
C420        C432   1.409       .  A
C420        C428   1.385       .  A
C421        C435   1.413       .  A
C421        C429   1.389       .  A
C422        C430   1.390       .  A
C422        C433   1.407       .  A
C423        C431   1.383       .  A
C423        C434   1.399       .  A
C424        C425   1.371       .  A
C424        H436   1.082       .  S
C425        H437   1.082       .  S
C426        C427   1.370       .  A
C426        H438   1.080       .  S
C427        H439   1.083       .  S
C428        C429   1.373       .  A
C428        H440   1.082       .  S
C429        H441   1.083       .  S
C430        C431   1.372       .  A
C430        H442   1.082       .  S
C431        H443   1.082       .  S
C432       C1210   1.453       .  S
C433       C1177   1.441       .  S
C434       C1180   1.449       .  S
C435       C1197   1.441       .  S
C446       C1350   1.487       .  S
C446        N447   1.365       .  A
C446        N451   1.358       .  A
N447        C448   1.367       .  A
C448       C1394   1.491       .  S
C448        N449   1.362       .  A
N449        C450   1.357       .  A
C450        N451   1.353       .  A
C450       C1176   1.436       .  S
C452       C1397   1.472       .  S
C452        N453   1.361       .  A
C452        N457   1.359       .  A
N453        C454   1.360       .  A
C454       C1346   1.457       .  S
C454        N455   1.354       .  A
N455        C456   1.350       .  A
C456        N457   1.353       .  A
C456       C1183   1.428       .  S
C458       C1534   1.476       .  S
C458        N459   1.358       .  A
C458        N463   1.361       .  A
N459        C460   1.352       .  A
C460        N461   1.353       .  A
C460       C1173   1.429       .  S
N461        C462   1.357       .  A
C462       C1322   1.462       .  S
C462        N463   1.362       .  A
C464       C1530   1.462       .  S
C464        N465   1.356       .  A
C464        N469   1.362       .  A
N465        C466   1.352       .  A
C466        N467   1.353       .  A
C466       C1182   1.429       .  S
N467        C468   1.359       .  A
C468       C1325   1.480       .  S
C468        N469   1.362       .  A
C470       C1466   1.469       .  S
C470        N471   1.357       .  A
C470        N475   1.364       .  A
N471        C472   1.354       .  A
C472        N473   1.355       .  A
C472       C1171   1.433       .  S
N473        C474   1.359       .  A
C474       C1550   1.483       .  S
C474        N475   1.364       .  A
C476       C1546   1.483       .  S
C476        N477   1.365       .  A
C476        N481   1.361       .  A
N477        C478   1.365       .  A
C478       C1469   1.482       .  S
C478        N479   1.358       .  A
N479        C480   1.352       .  A
C480        N481   1.352       .  A
C480       C1169   1.432       .  S
C482       C1245   1.476       .  S
C482        N483   1.362       .  A
C482        N487   1.359       .  A
N483        C484   1.362       .  A
C484       C1498   1.458       .  S
C484        N485   1.353       .  A
N485        C486   1.349       .  A
C486        N487   1.353       .  A
C486       C1168   1.425       .  S
C488       C1242   1.478       .  S
C488        N489   1.359       .  A
C488        N493   1.367       .  A
N489        C490   1.356       .  A
C490        N491   1.354       .  A
C490       C1179   1.438       .  S
N491        C492   1.359       .  A
C492       C1502   1.490       .  S
C492        N493   1.366       .  A
N494        C499   1.353       .  A
N494        C498   1.353       .  A
N494        H526   1.033       .  S
N495        C502   1.349       .  A
N495        C503   1.349       .  A
N496        C501   1.355       .  A
N496        C500   1.355       .  A
N496        H527   1.035       .  S
N497        C504   1.350       .  A
N497        C505   1.348       .  A
C498        C506   1.388       .  A
C498        C514   1.414       .  A
C499        C515   1.414       .  A
C499        C507   1.388       .  A
C500        C508   1.389       .  A
C500        C517   1.416       .  A
C501        C516   1.415       .  A
C501        C509   1.388       .  A
C502        C514   1.409       .  A
C502        C510   1.388       .  A
C503        C517   1.406       .  A
C503        C511   1.387       .  A
C504        C512   1.385       .  A
C504        C515   1.407       .  A
C505        C513   1.388       .  A
C505        C516   1.409       .  A
C506        C507   1.368       .  A
C506        H518   1.082       .  S
C507        H519   1.082       .  S
C508        C509   1.367       .  A
C508        H520   1.082       .  S
C509        H521   1.082       .  S
C510        C511   1.366       .  A
C510        H522   1.083       .  S
C511        H523   1.083       .  S
C512        C513   1.370       .  A
C512        H524   1.082       .  S
C513        H525   1.083       .  S
C514       C1167   1.441       .  S
C515       C1170   1.447       .  S
C516       C1174   1.445       .  S
C517       C1165   1.445       .  S
N528        C533   1.354       .  A
N528        C532   1.357       .  A
N528        H560   1.035       .  S
N529        C536   1.351       .  A
N529        C537   1.350       .  A
N530        C535   1.354       .  A
N530        C534   1.349       .  A
N530        H561   1.033       .  S
N531        C538   1.346       .  A
N531        C539   1.348       .  A
C532        C540   1.387       .  A
C532        C548   1.416       .  A
C533        C549   1.420       .  A
C533        C541   1.390       .  A
C534        C542   1.393       .  A
C534        C551   1.419       .  A
C535        C550   1.408       .  A
C535        C543   1.383       .  A
C536        C548   1.409       .  A
C536        C544   1.384       .  A
C537        C551   1.415       .  A
C537        C545   1.389       .  A
C538        C546   1.390       .  A
C538        C549   1.409       .  A
C539        C547   1.382       .  A
C539        C550   1.402       .  A
C540        C541   1.370       .  A
C540        H552   1.082       .  S
C541        H553   1.082       .  S
C542        C543   1.370       .  A
C542        H554   1.081       .  S
C543        H555   1.083       .  S
C544        C545   1.373       .  A
C544        H556   1.082       .  S
C545        H557   1.082       .  S
C546        C547   1.371       .  A
C546        H558   1.082       .  S
C547        H559   1.082       .  S
C548       C1163   1.457       .  S
C549       C1187   1.441       .  S
C550       C1161   1.452       .  S
C551       C1216   1.438       .  S
C562       C1353   1.464       .  S
C562        N563   1.357       .  A
C562        N567   1.364       .  A
N563        C564   1.352       .  A
C564        N565   1.349       .  A
C564       C1160   1.424       .  S
N565        C566   1.354       .  A
C566       C1261   1.477       .  S
C566        N567   1.363       .  A
C568       C1257   1.471       .  S
C568        N569   1.366       .  A
C568        N573   1.358       .  A
N569        C570   1.367       .  A
C570       C1358   1.483       .  S
C570        N571   1.356       .  A
N571        C572   1.350       .  A
C572        N573   1.353       .  A
C572       C1166   1.428       .  S
C574       C1402   1.519       .  S
C574        N575   1.361       .  A
C574        N579   1.380       .  A
N575        C576   1.356       .  A
C576        N577   1.356       .  A
C576       C1164   1.443       .  S
N577        C578   1.361       .  A
C578       C1155   1.518       .  S
C578        N579   1.380       .  A
C580       C1149   1.457       .  S
C580        N581   1.350       .  A
C580        N585   1.357       .  A
N581        C582   1.357       .  A
C582       C1406   1.466       .  S
C582        N583   1.354       .  A
N583        C584   1.355       .  A
C584        N585   1.353       .  A
C584       C1154   1.424       .  S
C586       C1494   1.478       .  S
C586        N587   1.363       .  A
C586        N591   1.356       .  A
N587        C588   1.364       .  A
C588       C1298   1.471       .  S
C588        N589   1.360       .  A
N589        C590   1.356       .  A
C590        N591   1.350       .  A
C590       C1147   1.431       .  S
C592       C1301   1.480       .  S
C592        N593   1.353       .  A
C592        N597   1.367       .  A
N593        C594   1.346       .  A
C594        N595   1.352       .  A
C594       C1178   1.424       .  S
N595        C596   1.358       .  A
C596       C1490   1.470       .  S
C596        N597   1.368       .  A
N598        C603   1.352       .  A
N598        C602   1.352       .  A
N598        H630   1.033       .  S
N599        C606   1.349       .  A
N599        C607   1.348       .  A
N600        C605   1.355       .  A
N600        C604   1.355       .  A
N600        H631   1.036       .  S
N601        C608   1.349       .  A
N601        C609   1.349       .  A
C602        C610   1.389       .  A
C602        C618   1.414       .  A
C603        C619   1.412       .  A
C603        C611   1.388       .  A
C604        C612   1.388       .  A
C604        C621   1.415       .  A
C605        C620   1.416       .  A
C605        C613   1.388       .  A
C606        C618   1.407       .  A
C606        C614   1.385       .  A
C607        C621   1.408       .  A
C607        C615   1.388       .  A
C608        C616   1.387       .  A
C608        C619   1.410       .  A
C609        C617   1.386       .  A
C609        C620   1.408       .  A
C610        C611   1.367       .  A
C610        H622   1.082       .  S
C611        H623   1.082       .  S
C612        C613   1.366       .  A
C612        H624   1.082       .  S
C613        H625   1.082       .  S
C614        C615   1.371       .  A
C614        H626   1.083       .  S
C615        H627   1.083       .  S
C616        C617   1.372       .  A
C616        H628   1.083       .  S
C617        H629   1.083       .  S
C618       C1145   1.443       .  S
C619       C1148   1.445       .  S
C620       C1172   1.448       .  S
C621       C1192   1.444       .  S
N632        C637   1.354       .  A
N632        C636   1.356       .  A
N632        H664   1.037       .  S
N633        C640   1.349       .  A
N633        C641   1.349       .  A
N634        C639   1.355       .  A
N634        C638   1.351       .  A
N634        H665   1.036       .  S
N635        C642   1.346       .  A
N635        C643   1.346       .  A
C636        C644   1.387       .  A
C636        C652   1.415       .  A
C637        C653   1.417       .  A
C637        C645   1.389       .  A
C638        C646   1.391       .  A
C638        C655   1.418       .  A
C639        C654   1.409       .  A
C639        C647   1.383       .  A
C640        C652   1.407       .  A
C640        C648   1.384       .  A
C641        C655   1.412       .  A
C641        C649   1.388       .  A
C642        C650   1.389       .  A
C642        C653   1.406       .  A
C643        C651   1.384       .  A
C643        C654   1.400       .  A
C644        C645   1.369       .  A
C644        H656   1.082       .  S
C645        H657   1.082       .  S
C646        C647   1.370       .  A
C646        H658   1.078       .  S
C647        H659   1.082       .  S
C648        C649   1.374       .  A
C648        H660   1.082       .  S
C649        H661   1.082       .  S
C650        C651   1.372       .  A
C650        H662   1.082       .  S
C651        H663   1.082       .  S
C652       C1204   1.453       .  S
C653       C1159   1.441       .  S
C654       C1175   1.447       .  S
C655       C1153   1.441       .  S
C666       C1450   1.465       .  S
C666        N667   1.355       .  A
C666        N671   1.364       .  A
N667        C668   1.351       .  A
C668        N669   1.355       .  A
C668       C1146   1.429       .  S
N669        C670   1.359       .  A
C670       C1310   1.481       .  S
C670        N671   1.364       .  A
C672       C1306   1.482       .  S
C672        N673   1.362       .  A
C672        N677   1.367       .  A
N673        C674   1.359       .  A
C674        N675   1.354       .  A
C674       C1162   1.440       .  S
N675        C676   1.358       .  A
C676       C1453   1.488       .  S
C676        N677   1.366       .  A
C678       C1458   1.468       .  S
C678        N679   1.358       .  A
C678        N683   1.363       .  A
N679        C680   1.355       .  A
C680        N681   1.357   1_554  A
C680       C1144   1.435       .  S
N681        C682   1.360       .  A
C682       C1526   1.485       .  S
C682        N683   1.362   1_556  A
C684       C1522   1.470       .  S
C684        N685   1.365       .  A
C684        N689   1.359       .  A
N685        C686   1.365   1_556  A
C686       C1461   1.479       .  S
C686        N687   1.356       .  A
N687        C688   1.350   1_554  A
C688        N689   1.354       .  A
C688       C1141   1.431       .  S
C690       C1317   1.479       .  S
C690        N691   1.357       .  A
C690        N695   1.363   1_455  A
N691        C692   1.350   1_455  A
C692        N693   1.353       .  A
C692       C1139   1.429       .  S
N693        C694   1.358       .  A
C694       C1514   1.467       .  S
C694        N695   1.364       .  A
C696       C1313   1.469       .  S
C696        N697   1.357       .  A
C696        N701   1.365       .  A
N697        C698   1.353       .  A
C698        N699   1.352   1_455  A
C698       C1138   1.430       .  S
N699        C700   1.357       .  A
C700       C1518   1.481       .  S
C700        N701   1.365   1_655  A
C702       C1510   1.481       .  S
C702        N703   1.362   1_565  A
C702        N707   1.360       .  A
N703        C704   1.361       .  A
C704       C1409   1.465       .  S
C704        N705   1.356       .  A
N705        C706   1.353       .  A
C706        N707   1.356   1_545  A
C706       C1135   1.433       .  S
C708       C1414   1.485       .  S
C708        N709   1.364   1_545  A
C708        N713   1.359       .  A
N709        C710   1.364       .  A
C710       C1506   1.469       .  S
C710        N711   1.358       .  A
N711        C712   1.354       .  A
C712        N713   1.355   1_565  A
C712       C1134   1.434       .  S
C714       C1362   1.537       .  S
C714        N715   1.362       .  A
C714        N719   1.389   1_556  A
N715        C716   1.359   1_556  A
C716        N717   1.356       .  A
C716       C1131   1.445       .  S
N717        C718   1.360       .  A
C718       C1128   1.533       .  S
C718        N719   1.389       .  A
C720       C1122   1.447       .  S
C720        N721   1.347       .  A
C720        N725   1.355       .  A
N721        C722   1.350   1_554  A
C722       C1366   1.449       .  S
C722        N723   1.360       .  A
N723        C724   1.357   1_556  A
C724        N725   1.349       .  A
C724       C1126   1.425       .  S
C726       C1277   1.481       .  S
C726        N727   1.358       .  A
C726        N731   1.365   1_545  A
N727        C728   1.353   1_545  A
C728        N729   1.351       .  A
C728       C1120   1.426       .  S
N729        C730   1.355       .  A
C730       C1482   1.466       .  S
C730        N731   1.364       .  A
C732       C1486   1.484       .  S
C732        N733   1.356       .  A
C732        N737   1.366   1_565  A
N733        C734   1.351   1_565  A
C734        N735   1.358       .  A
C734       C1117   1.435       .  S
N735        C736   1.361       .  A
C736       C1273   1.481       .  S
C736        N737   1.367       .  A
N738        C743   1.357       .  A
N738        C742   1.353       .  A
N738        H770   1.036       .  S
N739        C746   1.346       .  A
N739        C747   1.348       .  A
N740        C745   1.349       .  A
N740        C744   1.355       .  A
N740        H771   1.036       .  S
N741        C748   1.352       .  A
N741        C749   1.351       .  A
C742        C750   1.391       .  A
C742        C758   1.419   1_545  A
C743        C759   1.416   1_556  A
C743        C751   1.386       .  A
C744        C752   1.384       .  A
C744        C761   1.407       .  A
C745        C760   1.415   1_565  A
C745        C753   1.392       .  A
C746        C758   1.408       .  A
C746        C754   1.390       .  A
C747        C761   1.401   1_556  A
C747        C755   1.383       .  A
C748        C756   1.384       .  A
C748        C759   1.411       .  A
C749        C757   1.388       .  A
C749        C760   1.415       .  A
C750        C751   1.370       .  A
C750        H762   1.081       .  S
C751        H763   1.082       .  S
C752        C753   1.367       .  A
C752        H764   1.082       .  S
C753        H765   1.082       .  S
C754        C755   1.372       .  A
C754        H766   1.082       .  S
C755        H767   1.082       .  S
C756        C757   1.374       .  A
C756        H768   1.082       .  S
C757        H769   1.082       .  S
C758       C1112   1.440       .  S
C759       C1132   1.460       .  S
C760       C1116   1.439       .  S
C761       C1113   1.449       .  S
N772        C777   1.352       .  A
N772        C776   1.355       .  A
N772        H804   1.034       .  S
N773        C780   1.350       .  A
N773        C781   1.348       .  A
N774        C779   1.355       .  A
N774        C778   1.353       .  A
N774        H805   1.034       .  S
N775        C782   1.349       .  A
N775        C783   1.350       .  A
C776        C784   1.387       .  A
C776        C792   1.413   1_556  A
C777        C793   1.414   1_565  A
C777        C785   1.389       .  A
C778        C786   1.389       .  A
C778        C795   1.415   1_545  A
C779        C794   1.414       .  A
C779        C787   1.388       .  A
C780        C792   1.408       .  A
C780        C788   1.387       .  A
C781        C795   1.407       .  A
C781        C789   1.386       .  A
C782        C790   1.386       .  A
C782        C793   1.409       .  A
C783        C791   1.387       .  A
C783        C794   1.410   1_556  A
C784        C785   1.367       .  A
C784        H796   1.082       .  S
C785        H797   1.082       .  S
C786        C787   1.366       .  A
C786        H798   1.082       .  S
C787        H799   1.082       .  S
C788        C789   1.370       .  A
C788        H800   1.083       .  S
C789        H801   1.083       .  S
C790        C791   1.372       .  A
C790        H802   1.083       .  S
C791        H803   1.083       .  S
C792       C1142   1.447   1_554  S
C793       C1136   1.447       .  S
C794       C1109   1.449       .  S
C795       C1119   1.440       .  S
C806       C1282   1.480       .  S
C806        N807   1.361       .  A
C806        N811   1.368       .  A
N807        C808   1.356       .  A
C808        N809   1.350   1_554  A
C808       C1110   1.434       .  S
N809        C810   1.356       .  A
C810       C1430   1.484       .  S
C810        N811   1.368   1_556  A
C812       C1426   1.471       .  S
C812        N813   1.368       .  A
C812        N817   1.358       .  A
N813        C814   1.367   1_556  A
C814       C1286   1.480       .  S
C814        N815   1.351       .  A
N815        C816   1.346   1_554  A
C816        N817   1.352       .  A
C816       C1107   1.421       .  S
C818       C1222   1.448       .  S
C818        N819   1.361       .  A
C818        N823   1.348   1_565  A
N819        C820   1.357   1_565  A
C820        N821   1.348       .  A
C820       C1115   1.424       .  S
N821        C822   1.354       .  A
C822       C1104   1.445       .  S
C822        N823   1.346       .  A
C824       C1098   1.531       .  S
C824        N825   1.361       .  A
C824        N829   1.387       .  A
N825        C826   1.356       .  A
C826        N827   1.356   1_545  A
C826       C1101   1.440       .  S
N827        C828   1.360       .  A
C828       C1218   1.531       .  S
C828        N829   1.387   1_565  A
C830       C1477   1.478       .  S
C830        N831   1.363   1_655  A
C830        N835   1.356       .  A
N831        C832   1.364       .  A
C832       C1225   1.469       .  S
C832        N833   1.360       .  A
N833        C834   1.355       .  A
C834        N835   1.350   1_455  A
C834       C1096   1.432       .  S
C836       C1473   1.465       .  S
C836        N837   1.356       .  A
C836        N841   1.365       .  A
N837        C838   1.351       .  A
C838        N839   1.347   1_655  A
C838       C1093   1.421       .  S
N839        C840   1.353       .  A
C840       C1230   1.475       .  S
C840        N841   1.365   1_455  A
N842        C847   1.354       .  A
N842        C846   1.357       .  A
N842        H874   1.039       .  S
N843        C850   1.352       .  A
N843        C851   1.351       .  A
N844        C849   1.355       .  A
N844        C848   1.350       .  A
N844        H875   1.038       .  S
N845        C852   1.345       .  A
N845        C853   1.346       .  A
C846        C854   1.387       .  A
C846        C862   1.415       .  A
C847        C863   1.417   1_554  A
C847        C855   1.389       .  A
C848        C856   1.392       .  A
C848        C865   1.414   1_556  A
C849        C864   1.407       .  A
C849        C857   1.384       .  A
C850        C862   1.410   1_455  A
C850        C858   1.384       .  A
C851        C865   1.414       .  A
C851        C859   1.388       .  A
C852        C860   1.389       .  A
C852        C863   1.404       .  A
C853        C861   1.384       .  A
C853        C864   1.398   1_655  A
C854        C855   1.369       .  A
C854        H866   1.082       .  S
C855        H867   1.082       .  S
C856        C857   1.368       .  A
C856        H868   1.082       .  S
C857        H869   1.082       .  S
C858        C859   1.374       .  A
C858        H870   1.082       .  S
C859        H871   1.082       .  S
C860        C861   1.370       .  A
C860        H872   1.082       .  S
C861        H873   1.083       .  S
C862       C1091   1.457       .  S
C863       C1108   1.439       .  S
C864       C1089   1.446       .  S
C865       C1125   1.440       .  S
N876        C881   1.354       .  A
N876        C880   1.354       .  A
N876        H908   1.035       .  S
N877        C884   1.349       .  A
N877        C885   1.351       .  A
N878        C883   1.353       .  A
N878        C882   1.353       .  A
N878        H909   1.033       .  S
N879        C886   1.350       .  A
N879        C887   1.350       .  A
C880        C888   1.388       .  A
C880        C896   1.414       .  A
C881        C897   1.415   1_556  A
C881        C889   1.389       .  A
C882        C890   1.389       .  A
C882        C899   1.414   1_554  A
C883        C898   1.412       .  A
C883        C891   1.387       .  A
C884        C896   1.410   1_455  A
C884        C892   1.388       .  A
C885        C899   1.409       .  A
C885        C893   1.385       .  A
C886        C894   1.386       .  A
C886        C897   1.409       .  A
C887        C895   1.386       .  A
C887        C898   1.410   1_655  A
C888        C889   1.367       .  A
C888        H900   1.082       .  S
C889        H901   1.082       .  S
C890        C891   1.366       .  A
C890        H902   1.082       .  S
C891        H903   1.083       .  S
C892        C893   1.371       .  A
C892        H904   1.083       .  S
C893        H905   1.082       .  S
C894        C895   1.371       .  A
C894        H906   1.083       .  S
C895        H907   1.083       .  S
C896       C1140   1.444       .  S
C897       C1143   1.449       .  S
C898       C1095   1.447       .  S
C899       C1088   1.445       .  S
C910       C1234   1.487       .  S
C910        N911   1.364       .  A
C910        N915   1.365       .  A
N911        C912   1.358       .  A
C912        N913   1.351   1_554  A
C912       C1114   1.436       .  S
N913        C914   1.356       .  A
C914       C1334   1.477       .  S
C914        N915   1.363   1_556  A
C916       C1330   1.480       .  S
C916        N917   1.363       .  A
C916        N921   1.359       .  A
N917        C918   1.363   1_556  A
C918       C1238   1.473       .  S
C918        N919   1.358       .  A
N919        C920   1.353   1_554  A
C920        N921   1.350       .  A
C920       C1087   1.431       .  S
C922       C1083   1.526       .  S
C922        N923   1.360       .  A
C922        N927   1.386   1_455  A
N923        C924   1.355   1_455  A
C924        N925   1.358       .  A
C924       C1092   1.443       .  S
N925        C926   1.362       .  A
C926       C1266   1.530       .  S
C926        N927   1.386       .  A
C928       C1077   1.458       .  S
C928        N929   1.356       .  A
C928        N933   1.351   1_455  A
N929        C930   1.350       .  A
C930        N931   1.356   1_455  A
C930       C1082   1.423       .  S
N931        C932   1.355       .  A
C932       C1269   1.467       .  S
C932        N933   1.359       .  A
C934       C1438   1.484       .  S
C934        N935   1.358       .  A
C934        N939   1.365       .  A
N935        C936   1.353   1_655  A
C936        N937   1.355       .  A
C936       C1090   1.433       .  S
N937        C938   1.358       .  A
C938       C1377   1.476       .  S
C938        N939   1.366   1_455  A
C940       C1434   1.467       .  S
C940        N941   1.365       .  A
C940        N945   1.356       .  A
N941        C942   1.366       .  A
C942       C1382   1.479   1_655  S
C942        N943   1.358       .  A
N943        C944   1.350       .  A
C944        N945   1.350       .  A
C944       C1075   1.427       .  S
N946        C951   1.356       .  A
N946        C950   1.353       .  A
N946        H978   1.035       .  S
N947        C954   1.345       .  A
N947        C955   1.347       .  A
N948        C953   1.349       .  A
N948        C952   1.354       .  A
N948        H979   1.034       .  S
N949        C956   1.350       .  A
N949        C957   1.350       .  A
C950        C958   1.390       .  A
C950        C966   1.419   1_455  A
C951        C967   1.417   1_565  A
C951        C959   1.387       .  A
C952        C960   1.383       .  A
C952        C969   1.407       .  A
C953        C968   1.418   1_655  A
C953        C961   1.392       .  A
C954        C966   1.408       .  A
C954        C962   1.390       .  A
C955        C969   1.401   1_565  A
C955        C963   1.383       .  A
C956        C964   1.385       .  A
C956        C967   1.410       .  A
C957        C965   1.388       .  A
C957        C968   1.414       .  A
C958        C959   1.371       .  A
C958        H970   1.082       .  S
C959        H971   1.083       .  S
C960        C961   1.368       .  A
C960        H972   1.083       .  S
C961        H973   1.080       .  S
C962        C963   1.372       .  A
C962        H974   1.082       .  S
C963        H975   1.082       .  S
C964        C965   1.374       .  A
C964        H976   1.082       .  S
C965        H977   1.082       .  S
C966       C1094   1.438       .  S
C967       C1102   1.454       .  S
C968       C1081   1.440       .  S
C969       C1118   1.447       .  S
N980        C985   1.354       .  A
N980        C984   1.354       .  A
N980       H1012   1.034       .  S
N981        C988   1.350       .  A
N981        C989   1.350       .  A
N982        C987   1.355       .  A
N982        C986   1.355       .  A
N982       H1013   1.035       .  S
N983        C990   1.349       .  A
N983        C991   1.349       .  A
C984        C992   1.388       .  A
C984       C1000   1.415       .  A
C985       C1001   1.414   1_545  A
C985        C993   1.388       .  A
C986        C994   1.389       .  A
C986       C1003   1.415   1_565  A
C987       C1002   1.415       .  A
C987        C995   1.388       .  A
C988       C1000   1.411   1_455  A
C988        C996   1.389       .  A
C989       C1003   1.406       .  A
C989        C997   1.386       .  A
C990        C998   1.385       .  A
C990       C1001   1.407       .  A
C991        C999   1.388       .  A
C991       C1002   1.410   1_655  A
C992        C993   1.368       .  A
C992       H1004   1.082       .  S
C993       H1005   1.082       .  S
C994        C995   1.366       .  A
C994       H1006   1.082       .  S
C995       H1007   1.082       .  S
C996        C997   1.368       .  A
C996       H1008   1.083       .  S
C997       H1009   1.083       .  S
C998        C999   1.370       .  A
C998       H1010   1.083       .  S
C999       H1011   1.083       .  S
C1000      C1076   1.443       .  S
C1001      C1133   1.448       .  S
C1002      C1137   1.446       .  S
C1003      C1073   1.446       .  S
C1014      C1373   1.471       .  S
C1014      N1015   1.351       .  A
C1014      N1019   1.365   1_545  A
N1015      C1016   1.349   1_545  A
C1016      N1017   1.354       .  A
C1016      C1111   1.423       .  S
N1017      C1018   1.361       .  A
C1018      C1338   1.486       .  S
C1018      N1019   1.365       .  A
C1020      C1342   1.477       .  S
C1020      N1021   1.364   1_565  A
C1020      N1025   1.355       .  A
N1021      C1022   1.365       .  A
C1022      C1369   1.484       .  S
C1022      N1023   1.361       .  A
N1023      C1024   1.355       .  A
C1024      N1025   1.351   1_545  A
C1024      C1074   1.429       .  S
O1026      C1053   1.273       .  A
O1026     Mn1052   2.096       .  S
C1027      O1060   1.270       .  A
C1027      O1057   1.263       .  A
C1027      C1103   1.449       .  S
O1028     Mn1035   2.177       .  S
O1028     Mn1046   2.133       .  S
O1028     Mn1050   2.174       .  S
O1028     Mn1052   2.123       .  S
O1029      C1039   1.266       .  A
O1029     Mn1063   2.062       .  S
O1030      C1053   1.265       .  A
O1030     Mn1046   2.063       .  S
O1031      C1058   1.265       .  A
O1031     Mn1050   2.157       .  S
O1032     Mn1063   1.974       .  S
O1032     Mn1052   1.953       .  S
O1032      C1048   1.222       .  S
C1033      O1036   1.265       .  A
C1033      C1205   1.511       .  S
C1033      O1059   1.224       .  S
O1034     Mn1054   2.129       .  S
O1034     Mn1035   2.172       .  S
O1034     Mn1068   2.126       .  S
O1034     Mn1050   2.167       .  S
Mn1035     O1064   2.169       .  S
Mn1035     O1040   2.166       .  S
Mn1035     O1067   2.179       .  S
Mn1035     O1041   2.169       .  S
O1036     Mn1050   2.165       .  S
O1037      C1039   1.273       .  A
O1037     Mn1044   2.096       .  S
C1038      O1064   1.268       .  A
C1038      C1127   1.522       .  S
C1038      O1051   1.231       .  S
C1039      C1211   1.460       .  S
O1040      C1065   1.266       .  A
O1041     Mn1044   2.137       .  S
O1041     Mn1063   2.121       .  S
O1041     Mn1050   2.169       .  S
O1042     Mn1046   1.947       .  S
O1042     Mn1068   1.981       .  S
O1042      C1065   1.225       .  S
C1043      O1069   1.266       .  A
C1043      O1045   1.272       .  A
C1043      C1194   1.460       .  S
Mn1044     O1057   2.054       .  S
Mn1044     O1059   1.944       .  S
Mn1044     O1051   1.988       .  S
O1045     Mn1068   2.089       .  S
Mn1046     O1062   2.093       .  S
Mn1046     O1056   1.982       .  S
O1047      C1049   1.266       .  A
O1047     Mn1052   2.066       .  S
C1048      O1066   1.264       .  A
C1048      C1156   1.505       .  S
C1049      O1062   1.272       .  A
C1049      C1078   1.461       .  S
Mn1050     O1066   2.161       .  S
O1051     Mn1054   1.957       .  S
Mn1052     O1070   1.981       .  S
C1053      C1150   1.461       .  S
Mn1054     O1061   2.070       .  S
Mn1054     O1069   2.066       .  S
Mn1054     O1059   1.974       .  S
C1055      O1061   1.270       .  A
C1055      O1071   1.265       .  A
C1055      C1121   1.452       .  S
O1056     Mn1068   1.952       .  S
O1056      C1058   1.225       .  S
C1058      C1200   1.507       .  S
O1060     Mn1063   2.069       .  S
Mn1063     O1070   1.949       .  S
C1065      C1084   1.513       .  S
O1067      C1072   1.268       .  A
Mn1068     O1071   2.061       .  S
O1070      C1072   1.225       .  S
C1072      C1097   1.520       .  S
C1073      C1074   1.202       .  T
C1075      C1076   1.200       .  T
C1077      C1078   1.337       .  D
C1077      H1079   1.086       .  S
C1078      H1080   1.089       .  S
C1081      C1082   1.198       .  T
C1083      C1084   1.374       .  D
C1083      H1085   1.085       .  S
C1084      H1086   1.085       .  S
C1087      C1088   1.203       .  T
C1089      C1090   1.204       .  T
C1091      C1092   1.211       .  T
C1093      C1094   1.197       .  T
C1095      C1096   1.204       .  T
C1097      C1098   1.376       .  D
C1097      H1099   1.085       .  S
C1098      H1100   1.085       .  S
C1101      C1102   1.209       .  T
C1103      C1104   1.334       .  D
C1103      H1105   1.088       .  S
C1104      H1106   1.087       .  S
C1107      C1108   1.198       .  T
C1109      C1110   1.205       .  T
C1111      C1112   1.198       .  T
C1113      C1114   1.206       .  T
C1115      C1116   1.199       .  T
C1117      C1118   1.206       .  T
C1119      C1120   1.200       .  T
C1121      C1122   1.336       .  D
C1121      H1123   1.088       .  S
C1122      H1124   1.087       .  S
C1125      C1126   1.199       .  T
C1127      C1128   1.378       .  D
C1127      H1129   1.085       .  S
C1128      H1130   1.085       .  S
C1131      C1132   1.212       .  T
C1133      C1134   1.205       .  T
C1135      C1136   1.204       .  T
C1137      C1138   1.203       .  T
C1139      C1140   1.202       .  T
C1141      C1142   1.204       .  T
C1143      C1144   1.206       .  T
C1145      C1146   1.202       .  T
C1147      C1148   1.203       .  T
C1149      C1150   1.337       .  D
C1149      H1151   1.086       .  S
C1150      H1152   1.088       .  S
C1153      C1154   1.199       .  T
C1155      C1156   1.367       .  D
C1155      H1157   1.086       .  S
C1156      H1158   1.086       .  S
C1159      C1160   1.199       .  T
C1161      C1162   1.208       .  T
C1163      C1164   1.210       .  T
C1165      C1166   1.202       .  T
C1167      C1168   1.199       .  T
C1169      C1170   1.204       .  T
C1171      C1172   1.205       .  T
C1173      C1174   1.202       .  T
C1175      C1176   1.206       .  T
C1177      C1178   1.199       .  T
C1179      C1180   1.207       .  T
C1181      C1182   1.202       .  T
C1183      C1184   1.201       .  T
C1185      C1186   1.203       .  T
C1187      C1188   1.199       .  T
C1189      C1190   1.204       .  T
C1191      C1192   1.202       .  T
C1193      C1194   1.337       .  D
C1193      H1195   1.086       .  S
C1194      H1196   1.088       .  S
C1197      C1198   1.198       .  T
C1199      C1200   1.369       .  D
C1199      H1201   1.085       .  S
C1200      H1202   1.086       .  S
C1203      C1204   1.209       .  T
C1205      C1206   1.372       .  D
C1205      H1207   1.086       .  S
C1206      H1208   1.085       .  S
C1209      C1210   1.208       .  T
C1211      C1212   1.337       .  D
C1211      H1213   1.089       .  S
C1212      H1214   1.086       .  S
C1215      C1216   1.197       .  T
C1217      C1218   1.375       .  D
C1217      H1219   1.086       .  S
C1218      H1220   1.085       .  S
C1221      C1222   1.336       .  D
C1221      H1223   1.088       .  S
C1222      H1224   1.087       .  S
C1225      C1226   1.351       .  D
C1225      H1227   1.086       .  S
C1226      H1228   1.086       .  S
C1229      C1230   1.352       .  D
C1229      H1231   1.087       .  S
C1230      H1232   1.084       .  S
C1233      C1234   1.345       .  D
C1233      H1235   1.086       .  S
C1234      H1236   1.082       .  S
C1237      C1238   1.347       .  D
C1237      H1239   1.087       .  S
C1238      H1240   1.084       .  S
C1241      C1242   1.354       .  D
C1241      H1243   1.086       .  S
C1242      H1244   1.086       .  S
C1245      C1246   1.346       .  D
C1245      H1247   1.086       .  S
C1246      H1248   1.087       .  S
C1249      C1250   1.370       .  D
C1249      H1251   1.086       .  S
C1250      H1252   1.085       .  S
C1253      C1254   1.337       .  D
C1253      H1255   1.087       .  S
C1254      H1256   1.088       .  S
C1257      C1258   1.351       .  D
C1257      H1259   1.087       .  S
C1258      H1260   1.086       .  S
C1261      C1262   1.351       .  D
C1261      H1263   1.085       .  S
C1262      H1264   1.087       .  S
C1265      C1266   1.374       .  D
C1265      H1267   1.086       .  S
C1266      H1268   1.085       .  S
C1269      C1270   1.338       .  D
C1269      H1271   1.088       .  S
C1270      H1272   1.086       .  S
C1273      C1274   1.353       .  D
C1273      H1275   1.086       .  S
C1274      H1276   1.086       .  S
C1277      C1278   1.351       .  D
C1277      H1279   1.085       .  S
C1278      H1280   1.087       .  S
C1281      C1282   1.356       .  D
C1281      H1283   1.086       .  S
C1282      H1284   1.086       .  S
C1285      C1286   1.356       .  D
C1285      H1287   1.087       .  S
C1286      H1288   1.086       .  S
C1289      C1290   1.371       .  D
C1289      H1291   1.086       .  S
C1290      H1292   1.085       .  S
C1293      C1294   1.333       .  D
C1293      H1295   1.088       .  S
C1294      H1296   1.087       .  S
C1297      C1298   1.349       .  D
C1297      H1299   1.086       .  S
C1298      H1300   1.086       .  S
C1301      C1302   1.354       .  D
C1301      H1303   1.085       .  S
C1302      H1304   1.087       .  S
C1305      C1306   1.352       .  D
C1305      H1307   1.086       .  S
C1306      H1308   1.086       .  S
C1309      C1310   1.351       .  D
C1309      H1311   1.087       .  S
C1310      H1312   1.086       .  S
C1313      C1314   1.349       .  D
C1313      H1315   1.086       .  S
C1314      H1316   1.086       .  S
C1317      C1318   1.348       .  D
C1317      H1319   1.085       .  S
C1318      H1320   1.087       .  S
C1321      C1322   1.348       .  D
C1321      H1323   1.086       .  S
C1322      H1324   1.087       .  S
C1325      C1326   1.348       .  D
C1325      H1327   1.086       .  S
C1326      H1328   1.087       .  S
C1329      C1330   1.344       .  D
C1329      H1331   1.086       .  S
C1330      H1332   1.084       .  S
C1333      C1334   1.349       .  D
C1333      H1335   1.087       .  S
C1334      H1336   1.085       .  S
C1337      C1338   1.344       .  D
C1337      H1339   1.086       .  S
C1338      H1340   1.082       .  S
C1341      C1342   1.351       .  D
C1341      H1343   1.087       .  S
C1342      H1344   1.084       .  S
C1345      C1346   1.345       .  D
C1345      H1347   1.086       .  S
C1346      H1348   1.087       .  S
C1349      C1350   1.352       .  D
C1349      H1351   1.087       .  S
C1350      H1352   1.086       .  S
C1353      C1354   1.346       .  D
C1353      H1355   1.086       .  S
C1354      H1356   1.086       .  S
C1357      C1358   1.353       .  D
C1357      H1359   1.087       .  S
C1358      H1360   1.085       .  S
C1361      C1362   1.378       .  D
C1361      H1363   1.086       .  S
C1362      H1364   1.085       .  S
C1365      C1366   1.340       .  D
C1365      H1367   1.087       .  S
C1366      H1368   1.087       .  S
C1369      C1370   1.343       .  D
C1369      H1371   1.078       .  S
C1370      H1372   1.086       .  S
C1373      C1374   1.354       .  D
C1373      H1375   1.084       .  S
C1374      H1376   1.087       .  S
C1377      C1378   1.351       .  D
C1377      H1379   1.085       .  S
C1378      H1380   1.086       .  S
C1381      C1382   1.349       .  D
C1381      H1383   1.088       .  S
C1382      H1384   1.086       .  S
C1385      C1386   1.349       .  D
C1385      H1387   1.086       .  S
C1386      H1388   1.086       .  S
C1389      C1390   1.355       .  D
C1389      H1391   1.084       .  S
C1390      H1392   1.087       .  S
C1393      C1394   1.348       .  D
C1393      H1395   1.086       .  S
C1394      H1396   1.083       .  S
C1397      C1398   1.345       .  D
C1397      H1399   1.085       .  S
C1398      H1400   1.088       .  S
C1401      C1402   1.367       .  D
C1401      H1403   1.086       .  S
C1402      H1404   1.086       .  S
C1405      C1406   1.338       .  D
C1405      H1407   1.087       .  S
C1406      H1408   1.088       .  S
C1409      C1410   1.345       .  D
C1409      H1411   1.086       .  S
C1410      H1412   1.086       .  S
C1413      C1414   1.350       .  D
C1413      H1415   1.087       .  S
C1414      H1416   1.086       .  S
C1417      C1418   1.345       .  D
C1417      H1419   1.086       .  S
C1418      H1420   1.082       .  S
C1421      C1422   1.350       .  D
C1421      H1423   1.084       .  S
C1422      H1424   1.087       .  S
C1425      C1426   1.349       .  D
C1425      H1427   1.086       .  S
C1426      H1428   1.086       .  S
C1429      C1430   1.354       .  D
C1429      H1431   1.087       .  S
C1430      H1432   1.085       .  S
C1433      C1434   1.350       .  D
C1433      H1435   1.086       .  S
C1434      H1436   1.087       .  S
C1437      C1438   1.352       .  D
C1437      H1439   1.087       .  S
C1438      H1440   1.086       .  S
C1441      C1442   1.349       .  D
C1441      H1443   1.086       .  S
C1442      H1444   1.086       .  S
C1445      C1446   1.349       .  D
C1445      H1447   1.085       .  S
C1446      H1448   1.087       .  S
C1449      C1450   1.347       .  D
C1449      H1451   1.086       .  S
C1450      H1452   1.085       .  S
C1453      C1454   1.355       .  D
C1453      H1455   1.085       .  S
C1454      H1456   1.087       .  S
C1457      C1458   1.347       .  D
C1457      H1459   1.086       .  S
C1458      H1460   1.085       .  S
C1461      C1462   1.350       .  D
C1461      H1463   1.085       .  S
C1462      H1464   1.087       .  S
C1465      C1466   1.347       .  D
C1465      H1467   1.086       .  S
C1466      H1468   1.086       .  S
C1469      C1470   1.350       .  D
C1469      H1471   1.085       .  S
C1470      H1472   1.087       .  S
C1473      C1474   1.346       .  D
C1473      H1475   1.087       .  S
C1474      H1476   1.086       .  S
C1477      C1478   1.349       .  D
C1477      H1479   1.085       .  S
C1478      H1480   1.087       .  S
C1481      C1482   1.345       .  D
C1481      H1483   1.086       .  S
C1482      H1484   1.085       .  S
C1485      C1486   1.354       .  D
C1485      H1487   1.087       .  S
C1486      H1488   1.085       .  S
C1489      C1490   1.349       .  D
C1489      H1491   1.086       .  S
C1490      H1492   1.087       .  S
C1493      C1494   1.350       .  D
C1493      H1495   1.087       .  S
C1494      H1496   1.086       .  S
C1497      C1498   1.345       .  D
C1497      H1499   1.086       .  S
C1498      H1500   1.087       .  S
C1501      C1502   1.352       .  D
C1501      H1503   1.087       .  S
C1502      H1504   1.086       .  S
C1505      C1506   1.348       .  D
C1505      H1507   1.086       .  S
C1506      H1508   1.086       .  S
C1509      C1510   1.348       .  D
C1509      H1511   1.087       .  S
C1510      H1512   1.086       .  S
C1513      C1514   1.347       .  D
C1513      H1515   1.086       .  S
C1514      H1516   1.085       .  S
C1517      C1518   1.351       .  D
C1517      H1519   1.087       .  S
C1518      H1520   1.085       .  S
C1521      C1522   1.348       .  D
C1521      H1523   1.086       .  S
C1522      H1524   1.086       .  S
C1525      C1526   1.350       .  D
C1525      H1527   1.087       .  S
C1526      H1528   1.086       .  S
C1529      C1530   1.344       .  D
C1529      H1531   1.086       .  S
C1530      H1532   1.086       .  S
C1533      C1534   1.346       .  D
C1533      H1535   1.087       .  S
C1534      H1536   1.086       .  S
C1537      C1538   1.350       .  D
C1537      H1539   1.086       .  S
C1538      H1540   1.086       .  S
C1541      C1542   1.349       .  D
C1541      H1543   1.087       .  S
C1542      H1544   1.085       .  S
C1545      C1546   1.345       .  D
C1545      H1547   1.086       .  S
C1546      H1548   1.083       .  S
C1549      C1550   1.350       .  D
C1549      H1551   1.087       .  S
C1550      H1552   1.085       .  S
