geometry optimzed in LAMMPS
_audit_creation_date              2020-11-30 
_audit_creation_method            'lammps2cif' 
_symmetry_space_group_name_H-M    'P1' 
_symmetry_Int_Tables_number       1 
_symmetry_cell_setting            triclinic 
loop_ 
_symmetry_equiv_pos_as_xyz 
  x,y,z 
_cell_length_a                    28.910871238558038 
_cell_length_b                    29.020412657623883 
_cell_length_c                    72.07664111632391 
_cell_angle_alpha                 89.51329458623759 
_cell_angle_beta                  90.35197708015752 
_cell_angle_gamma                 120.76910808206921 
loop_ 
_atom_site_label 
_atom_site_type_symbol 
_atom_site_fract_x 
_atom_site_fract_y 
_atom_site_fract_z 
_atom_site_charge 
C1          C  0.68450968  0.10823704  0.72989856     0.03240
C2          C  0.73320629  0.11937694  0.72170107    -0.12910
C3          C  0.73359600  0.09354388  0.70545222     0.00740
C4          C  0.68601347  0.05024712  0.69894172    -0.11440
C5          C  0.63726180  0.03547806  0.70747106     0.03230
C6          C  0.63605675  0.06598809  0.72225054    -0.10860
H7          H  0.77117758  0.14722849  0.72787484     0.08820
H8          H  0.68716985  0.02613572  0.68775221     0.06350
H9          H  0.59752103  0.05446022  0.72836181     0.06200
C10         C  0.98285029  0.17456663  0.64051422     0.03240
C11         C  0.93700746  0.14774698  0.65159620    -0.12910
C12         C  0.93593572  0.16741401  0.66911185     0.00740
C13         C  0.98210796  0.21226821  0.67597410    -0.11440
C14         C  0.02922835  0.23853981  0.66532068     0.03230
C15         C  0.02894508  0.22026636  0.64730522    -0.10860
H16         H  0.90160647  0.11206236  0.64642536     0.08820
H17         H  0.98058418  0.22868963  0.68922207     0.06350
H18         H  0.06366640  0.24186216  0.63840452     0.06200
C19         C  0.53520549  0.82137599  0.81475070     0.03240
C20         C  0.56725853  0.80528300  0.82415754    -0.12910
C21         C  0.59924609  0.83447209  0.83930510     0.00740
C22         C  0.60286079  0.88290849  0.84407926    -0.11440
C23         C  0.57159582  0.90002395  0.83479843     0.03230
C24         C  0.53653837  0.86836321  0.82060085    -0.10860
H25         H  0.56810575  0.77033598  0.81952705     0.08820
H26         H  0.63137524  0.90837577  0.85451906     0.06350
H27         H  0.51270853  0.88208391  0.81341463     0.06200
C28         C  0.78832204  0.77078064  0.89932388     0.03240
C29         C  0.75555768  0.78551232  0.88986952    -0.12910
C30         C  0.72065315  0.75277053  0.87592129     0.00740
C31         C  0.71625437  0.70335371  0.87229004    -0.11440
C32         C  0.74993422  0.68866026  0.88139034     0.03230
C33         C  0.78712203  0.72346464  0.89456537    -0.10860
H34         H  0.75656130  0.82213846  0.89360007     0.08820
H35         H  0.68660525  0.67617893  0.86242983     0.06350
H36         H  0.81479182  0.71392148  0.90124886     0.06200
C37         C  0.91434343  0.58686815  0.49614285     0.03240
C38         C  0.94051670  0.56429897  0.50562806    -0.12910
C39         C  0.94098464  0.51982574  0.49826007     0.00740
C40         C  0.91589916  0.49931499  0.48113035    -0.11440
C41         C  0.88517305  0.51828039  0.47262324     0.03230
C42         C  0.88521350  0.56274519  0.47995338    -0.10860
H43         H  0.96165007  0.58225892  0.51845305     0.08820
H44         H  0.91984053  0.46847011  0.47436111     0.06350
H45         H  0.86430015  0.57970852  0.47273084     0.06200
C46         C  0.07907963  0.42641678  0.57402370     0.03240
C47         C  0.06556085  0.45480203  0.56135646    -0.12910
C48         C  0.04441333  0.43332207  0.54382173     0.00740
C49         C  0.03837376  0.38382820  0.53886483    -0.11440
C50         C  0.04944304  0.35428293  0.55157516     0.03230
C51         C  0.06959774  0.37548015  0.56912341    -0.10860
H52         H  0.07108479  0.49314801  0.56525361     0.08820
H53         H  0.02406488  0.36776194  0.52511663     0.06350
H54         H  0.08015038  0.35323038  0.57867742     0.06200
C55         C  0.64629496  0.49790768  0.97445878     0.03240
C56         C  0.60020930  0.47460406  0.98566020    -0.12910
C57         C  0.59916711  0.49983517  0.00195984     0.00740
C58         C  0.64538313  0.54631145  0.00787151    -0.11440
C59         C  0.69093689  0.57234394  0.99649078     0.03230
C60         C  0.69141373  0.54723020  0.97981418    -0.10860
H61         H  0.56492692  0.43712481  0.98168830     0.08820
H62         H  0.64441111  0.56392943  0.02091109     0.06350
H63         H  0.72632822  0.56619060  0.97084434     0.06200
C64         C  0.35199023  0.44545946  0.06491409     0.03240
C65         C  0.39844917  0.47053102  0.05390151    -0.12910
C66         C  0.40036416  0.44697633  0.03727830     0.00740
C67         C  0.35489489  0.40006893  0.03112904    -0.11440
C68         C  0.31077050  0.37070076  0.04290201     0.03230
C69         C  0.31015144  0.39388370  0.06003086    -0.10860
H70         H  0.43336245  0.50768438  0.05839866     0.08820
H71         H  0.35596118  0.38478235  0.01765867     0.06350
H72         H  0.27740641  0.37189457  0.06969719     0.06200
C73         C  0.01391048  0.77071485  0.40060569     0.03240
C74         C  0.06297986  0.78531649  0.39176653    -0.12910
C75         C  0.06368250  0.76582872  0.37421374     0.00740
C76         C  0.01564441  0.72973158  0.36551193    -0.11440
C77         C  0.96640702  0.70939485  0.37471427     0.03230
C78         C  0.96561518  0.73197267  0.39188896    -0.10860
H79         H  0.10109058  0.81290295  0.39827927     0.08820
H80         H  0.01704964  0.71498660  0.35187417     0.06350
H81         H  0.92745782  0.71889938  0.39832224     0.06200
C82         C  0.30941217  0.83955982  0.30648237     0.03240
C83         C  0.26292034  0.81391216  0.31756544    -0.12910
C84         C  0.25928545  0.83869608  0.33361356     0.00740
C85         C  0.30376927  0.88653664  0.33971188    -0.11440
C86         C  0.35026713  0.91245368  0.32887670     0.03230
C87         C  0.35186482  0.89025823  0.31188948    -0.10860
H88         H  0.22867760  0.77586516  0.31337071     0.08820
H89         H  0.30124375  0.90480016  0.35242542     0.06350
H90         H  0.38573094  0.91324507  0.30280854     0.06200
C91         C  0.24163656  0.24997949  0.16293426     0.03240
C92         C  0.27001362  0.23049798  0.17281287    -0.12910
C93         C  0.27398816  0.18783238  0.16589257     0.00740
C94         C  0.24752721  0.16303929  0.14942124    -0.11440
C95         C  0.21722048  0.18076087  0.13966335     0.03230
C96         C  0.21315528  0.22346179  0.14683639    -0.10860
H97         H  0.29045866  0.24964043  0.18561009     0.08820
H98         H  0.25024316  0.12953302  0.14425545     0.06350
H99         H  0.18855294  0.23655410  0.13992471     0.06200
C100        C  0.43602833  0.10231029  0.23448004     0.03240
C101        C  0.41079619  0.12534389  0.22468974    -0.13330
C102        C  0.38770343  0.10584487  0.20734518     0.00740
C103        C  0.39182874  0.06438451  0.19926986    -0.11440
C104        C  0.41158152  0.03654788  0.20945120     0.03230
C105        C  0.43568936  0.05758325  0.22690139    -0.10860
H106        H  0.41032722  0.15953748  0.23039557     0.08820
H107        H  0.37881061  0.05378554  0.18514466     0.06350
H108        H  0.45547182  0.04016071  0.23436769     0.06200
C109        C  0.15121793  0.64234761  0.81672606     0.03240
C110        C  0.16508270  0.69234476  0.82420130    -0.12910
C111        C  0.13259180  0.69644138  0.83770615     0.00740
C112        C  0.08692696  0.64952693  0.84424845    -0.11440
C113        C  0.07514162  0.59884092  0.83816657     0.03230
C114        C  0.10898962  0.59566793  0.82493211    -0.10860
H115        H  0.20019310  0.72811222  0.81903119     0.08820
H116        H  0.05939139  0.65281283  0.85350664     0.06350
H117        H  0.10021374  0.55671489  0.82027294     0.06200
C118        C  0.17358895  0.95638986  0.89220764     0.03240
C119        C  0.15249832  0.90688700  0.88320168    -0.12910
C120        C  0.18083635  0.90029163  0.86872412     0.00740
C121        C  0.22755023  0.94540702  0.86177610    -0.11440
C122        C  0.24756561  0.99605795  0.86974608     0.03230
C123        C  0.22129996  0.00080249  0.88541481    -0.10860
H124        H  0.11519737  0.87299002  0.88809289     0.08820
H125        H  0.25054149  0.94034394  0.85099801     0.06350
H126        H  0.24003549  0.03816770  0.89299446     0.06200
C127        C  0.79690765  0.74903512  0.63987048     0.03240
C128        C  0.81825951  0.72291254  0.65008482    -0.12910
C129        C  0.79760586  0.70037601  0.66746863     0.00740
C130        C  0.75481574  0.70390066  0.67476004    -0.11440
C131        C  0.73114636  0.72844541  0.66470791     0.03230
C132        C  0.75278705  0.75091251  0.64716624    -0.10860
H133        H  0.85109679  0.71964618  0.64440922     0.08820
H134        H  0.73926027  0.68610639  0.68819531     0.06350
H135        H  0.73533385  0.76971728  0.63916098     0.06200
C136        C  0.84936107  0.50352275  0.72883880     0.03240
C137        C  0.83242852  0.53285674  0.71823284    -0.12910
C138        C  0.86433027  0.56587309  0.70365512     0.00740
C139        C  0.91381493  0.57027588  0.69991428    -0.11440
C140        C  0.93092588  0.54078736  0.71026527     0.03230
C141        C  0.89851192  0.50705296  0.72469773    -0.10860
H142        H  0.79521122  0.53130031  0.72170301     0.08820
H143        H  0.94028394  0.59849168  0.68951214     0.06350
H144        H  0.91249737  0.48548374  0.73313512     0.06200
C145        C  0.48334680  0.31829169  0.48072075     0.03240
C146        C  0.50947605  0.36433087  0.49170293    -0.12910
C147        C  0.48535160  0.36828625  0.50797119     0.00740
C148        C  0.43844277  0.32216216  0.51448723    -0.11440
C149        C  0.41479548  0.27381904  0.50438846     0.03230
C150        C  0.43673522  0.27295878  0.48723265    -0.10860
H151        H  0.54783669  0.39752563  0.48723308     0.08820
H152        H  0.41891703  0.32443716  0.52694261     0.06350
H153        H  0.41636512  0.23770235  0.47856455     0.06200
C154        C  0.52062011  0.61433692  0.56466815     0.03240
C155        C  0.51989887  0.56711636  0.55997336    -0.12910
C156        C  0.55613947  0.56812150  0.54691861     0.00740
C157        C  0.59764170  0.61783414  0.54021636    -0.11440
C158        C  0.59974479  0.66622060  0.54450611     0.03230
C159        C  0.55777108  0.66262775  0.55554346    -0.10860
H160        H  0.49054362  0.52930461  0.56619490     0.08820
H161        H  0.62754993  0.61815016  0.53115397     0.06350
H162        H  0.55455354  0.69741659  0.55777320     0.06200
C163        C  0.48606235  0.11102949  0.98402512     0.03240
C164        C  0.49586632  0.07211364  0.99115832    -0.12910
C165        C  0.46811844  0.04164569  0.00664036     0.00740
C166        C  0.42436865  0.04487070  0.01351947    -0.11440
C167        C  0.41320509  0.08391925  0.00659693     0.03230
C168        C  0.44777039  0.11983463  0.99274738    -0.10860
H169        H  0.52401346  0.06402521  0.98417109     0.08820
H170        H  0.39858742  0.01617915  0.02389205     0.06350
H171        H  0.44083658  0.15057783  0.98717722     0.06200
C172        C  0.58971375  0.85987994  0.03857582     0.03240
C173        C  0.57186515  0.89032595  0.02893821    -0.12910
C174        C  0.52639689  0.89159464  0.03506139     0.00740
C175        C  0.49970639  0.86344137  0.05109436    -0.11440
C176        C  0.51649285  0.83281253  0.06082536     0.03230
C177        C  0.56149457  0.83113563  0.05458738    -0.10860
H178        H  0.59463074  0.91493238  0.01721929     0.08820
H179        H  0.46685992  0.86707331  0.05651346     0.06350
H180        H  0.57634450  0.80985604  0.06273397     0.06200
C181        C  0.19031713  0.19517775  0.39859350     0.03240
C182        C  0.16648858  0.21646259  0.38716751    -0.12910
C183        C  0.18936071  0.23945236  0.37003405     0.00740
C184        C  0.23704838  0.24168375  0.36450581    -0.11440
C185        C  0.26220873  0.22228316  0.37622615     0.03230
C186        C  0.23774482  0.19741466  0.39301624    -0.10860
H187        H  0.13133224  0.21693188  0.39199895     0.08820
H188        H  0.25594129  0.26091667  0.35149310     0.06350
H189        H  0.25620182  0.18092338  0.40188925     0.06200
C190        C  0.14481547  0.45073831  0.31317535     0.03240
C191        C  0.15500850  0.41106971  0.31946775    -0.12910
C192        C  0.12414001  0.37583850  0.33373533     0.00740
C193        C  0.07689846  0.37441249  0.33934545    -0.11440
C194        C  0.06397212  0.41231463  0.33252722     0.03230
C195        C  0.10157529  0.45338807  0.32083703    -0.10860
H196        H  0.18662553  0.40721947  0.31308145     0.08820
H197        H  0.05039701  0.34355438  0.34903353     0.06350
H198        H  0.09626543  0.48622325  0.31688232     0.06200
C199        C  0.85496403  0.29431111  0.23147694     0.03240
C200        C  0.83253440  0.24699998  0.22109062    -0.12910
C201        C  0.85772570  0.24491751  0.20482449     0.00740
C202        C  0.90612993  0.28985517  0.19922984    -0.11440
C203        C  0.92924914  0.33706764  0.20949007     0.03230
C204        C  0.90349712  0.33960104  0.22563092    -0.10860
H205        H  0.79542636  0.21194211  0.22563587     0.08820
H206        H  0.92694452  0.28753516  0.18712799     0.06350
H207        H  0.92150135  0.37604836  0.23373004     0.06200
C208        C  0.79980220  0.00248871  0.13857511     0.03240
C209        C  0.82274505  0.04829625  0.14973826    -0.12910
C210        C  0.79403663  0.05120646  0.16483915     0.00740
C211        C  0.74242794  0.00837077  0.16872441    -0.11440
C212        C  0.71859191  0.96317062  0.15740623     0.03230
C213        C  0.74777900  0.95983187  0.14248293    -0.10860
H214        H  0.86245475  0.08184285  0.14653072     0.08820
H215        H  0.72104600  0.01017344  0.18072867     0.06350
H216        H  0.73009537  0.92417386  0.13396307     0.06200
C217        C  0.52734022  0.64877178  0.31161701     0.03240
C218        C  0.55588794  0.69643015  0.32174646    -0.12910
C219        C  0.57952663  0.69705540  0.33886784     0.00740
C220        C  0.57213213  0.64873767  0.34617878    -0.11440
C221        C  0.54580782  0.60093494  0.33581874     0.03230
C222        C  0.52236746  0.60126905  0.31874349    -0.10860
H223        H  0.56116135  0.73345858  0.31599419     0.08820
H224        H  0.58931738  0.64875649  0.35955959     0.06350
H225        H  0.50212080  0.56527727  0.31058815     0.06200
C226        C  0.78064722  0.95669252  0.39693500     0.03240
C227        C  0.74487118  0.90765381  0.38848169    -0.12910
C228        C  0.71479810  0.90553072  0.37274077     0.00740
C229        C  0.72104296  0.95346081  0.36546186    -0.11440
C230        C  0.75493380  0.00272997  0.37416804     0.03230
C231        C  0.78473572  0.00398957  0.38992293    -0.10860
H232        H  0.74012060  0.87087812  0.39427117     0.08820
H233        H  0.69831937  0.95236203  0.35336940     0.06350
H234        H  0.80983320  0.04155511  0.39705326     0.06200
C235        C  0.46304343  0.28912354  0.72879756     0.03240
C236        C  0.43626089  0.24065043  0.71913561    -0.12910
C237        C  0.40211949  0.23410028  0.70427478     0.00740
C238        C  0.39819583  0.27793596  0.69804517    -0.11440
C239        C  0.42461141  0.32688067  0.70754486     0.03230
C240        C  0.45687340  0.33222536  0.72305866    -0.10860
H241        H  0.44046838  0.20729996  0.72367568     0.08820
H242        H  0.37226862  0.27308929  0.68637925     0.06350
H243        H  0.47562831  0.36903967  0.73096475     0.06200
C244        C  0.20554211  0.97986580  0.64300217     0.03240
C245        C  0.23405307  0.02768021  0.65287434    -0.12910
C246        C  0.26530456  0.03106545  0.66819779     0.00740
C247        C  0.26323022  0.98449077  0.67484922    -0.11440
C248        C  0.23491249  0.93563943  0.66510668     0.03230
C249        C  0.20784474  0.93457774  0.64863925    -0.10860
H250        H  0.23280413  0.06269302  0.64832524     0.08820
H251        H  0.28575289  0.98703341  0.68725947     0.06350
H252        H  0.18947490  0.89939732  0.63999489     0.06200
C253        C  0.63228090  0.07451657  0.47328400     0.03240
C254        C  0.58759959  0.05152333  0.48511913    -0.12910
C255        C  0.58673568  0.02257064  0.50084714     0.00740
C256        C  0.63199329  0.01957050  0.50562832    -0.11440
C257        C  0.67706422  0.04150274  0.49395974     0.03230
C258        C  0.67672861  0.06883760  0.47769159    -0.10860
H259        H  0.55368019  0.05662293  0.48234383     0.08820
H260        H  0.63152184  0.99924884  0.51834950     0.06350
H261        H  0.71119782  0.08616681  0.46850710     0.06200
C262        C  0.33821402  0.84676670  0.56758463     0.03240
C263        C  0.38516590  0.86945699  0.55686904    -0.12910
C264        C  0.38830717  0.89592546  0.54023103     0.00740
C265        C  0.34414649  0.89890687  0.53397069    -0.11440
C266        C  0.29758305  0.87857052  0.54475635     0.03230
C267        C  0.29410870  0.85122191  0.56148737    -0.10860
H268        H  0.41969059  0.86738992  0.56165891     0.08820
H269        H  0.34688223  0.91895087  0.52092213     0.06350
H270        H  0.25814982  0.83493688  0.56991636     0.06200
C271        C  0.66505312  0.50312151  0.22840983     0.03240
C272        C  0.61785425  0.49870909  0.22110881    -0.12910
C273        C  0.61977268  0.52680771  0.20494829     0.00740
C274        C  0.66942641  0.55931215  0.19601991    -0.11440
C275        C  0.71683491  0.56425737  0.20328351     0.03230
C276        C  0.71447072  0.53636612  0.21953988    -0.10860
H277        H  0.58023702  0.47584601  0.22857051     0.08820
H278        H  0.67161216  0.58330365  0.18407573     0.06350
H279        H  0.75130692  0.54161648  0.22555233     0.06200
C280        C  0.98154443  0.76166126  0.14608786     0.03240
C281        C  0.02237352  0.75347356  0.15309107    -0.12910
C282        C  0.01922822  0.73218511  0.17090246     0.00740
C283        C  0.97074581  0.71049341  0.18073227    -0.11440
C284        C  0.92712288  0.71275352  0.17325365     0.03230
C285        C  0.93370818  0.74093921  0.15661861    -0.10860
H286        H  0.05583353  0.76094001  0.14462623     0.08820
H287        H  0.96598868  0.68951578  0.19373997     0.06350
H288        H  0.90008525  0.74398294  0.15150976     0.06200
C289        C  0.90828861  0.27501737  0.99975218     0.03240
C290        C  0.92274862  0.31650482  0.01241391    -0.12910
C291        C  0.91372020  0.35830725  0.00802672     0.00740
C292        C  0.88547515  0.35578666  0.99184987    -0.11440
C293        C  0.87579271  0.31788860  0.97807196     0.03230
C294        C  0.88766472  0.27738313  0.98237158    -0.10860
H295        H  0.94400155  0.31801482  0.02504918     0.08820
H296        H  0.87542536  0.38634775  0.98953224     0.06350
H297        H  0.88229468  0.24785441  0.97219028     0.06200
C298        C  0.08619404  0.66251034  0.04087863     0.03240
C299        C  0.05248781  0.61263186  0.03258946    -0.12910
C300        C  0.05131756  0.56665920  0.03937539     0.00740
C301        C  0.08320900  0.57043082  0.05461477    -0.11440
C302        C  0.11738375  0.62015727  0.06282064     0.03230
C303        C  0.11854821  0.66612120  0.05599138    -0.10860
H304        H  0.02619412  0.60936148  0.02124689     0.08820
H305        H  0.08047270  0.53443820  0.06031838     0.06350
H306        H  0.14293969  0.70423153  0.06290011     0.06200
C307        C  0.36044515  0.39254231  0.83419555     0.03240
C308        C  0.31038599  0.35909525  0.84264265    -0.12910
C309        C  0.26490518  0.36178437  0.83773546     0.00740
C310        C  0.26939475  0.39792914  0.82383322    -0.11440
C311        C  0.31858025  0.43118419  0.81495575     0.03230
C312        C  0.36379896  0.42754502  0.81994979    -0.10860
H313        H  0.30644043  0.32931714  0.85260121     0.08820
H314        H  0.23369438  0.39785891  0.81915452     0.06350
H315        H  0.40033551  0.44950940  0.81193789     0.06200
C316        C  0.00109651  0.15862245  0.89316368     0.03240
C317        C  0.04607971  0.17970116  0.88146796    -0.12910
C318        C  0.05313108  0.21561461  0.86716787     0.00740
C319        C  0.01204104  0.22635400  0.86326564    -0.11440
C320        C  0.96490533  0.20241521  0.87386102     0.03230
C321        C  0.96014094  0.16993835  0.88917724    -0.10860
H322        H  0.07801500  0.17147600  0.88439466     0.08820
H323        H  0.01735235  0.25465699  0.85238824     0.06350
H324        H  0.92536545  0.15474754  0.89812675     0.06200
O325        O  0.71487188  0.24505260  0.80505920    -0.80020
O326        O  0.49090308  0.20338635  0.86979591    -0.81580
O327        O  0.58190339  0.12694155  0.83955554    -0.78600
O328        O  0.55211340  0.24031158  0.80588456    -0.76980
O329        O  0.58987332  0.33172529  0.80593813    -0.78770
O330        O  0.63126367  0.13335653  0.86547468    -0.79700
O331        O  0.49459380  0.16336366  0.84302701    -0.81030
O332        O  0.62335328  0.19216836  0.80527547    -0.81320
Eu333      Eu  0.58906024  0.21406466  0.83271037     2.39200
O334        O  0.57925782  0.28450921  0.84401383    -0.88830
O335        O  0.67270960  0.22693383  0.84279430    -0.92430
C336        C  0.66984690  0.20740762  0.79823303     1.02260
C337        C  0.46942447  0.16603728  0.85733088     1.02080
C338        C  0.60088445  0.10753721  0.85158314     1.02020
C339        C  0.55937685  0.28488674  0.79890129     0.99880
H340        H  0.56512535  0.17847860  0.87026261     0.29630
O341        O  0.59238327  0.21290144  0.86551917    -1.01220
H342        H  0.65800365  0.29689399  0.80846385     0.29660
O343        O  0.65922243  0.29708221  0.82184597    -1.03760
O344        O  0.60951138  0.34791976  0.90263510    -0.80980
O345        O  0.83341671  0.38430198  0.83765503    -0.80520
O346        O  0.62254043  0.19665253  0.90513728    -0.78960
O347        O  0.57126355  0.37569758  0.84068890    -0.82300
O348        O  0.70648656  0.40386192  0.80487116    -0.80150
O349        O  0.75494931  0.21936317  0.86746310    -0.78800
O350        O  0.77916050  0.35622634  0.90067074    -0.80320
O351        O  0.74818199  0.46793547  0.86916056    -0.82250
O352        O  0.74074047  0.26556260  0.90075142    -0.78990
O353        O  0.69540910  0.46190041  0.84441782    -0.81660
O354        O  0.56794880  0.23218446  0.90533070    -0.77400
O355        O  0.79356784  0.26604720  0.84059821    -0.77430
O356        O  0.75982866  0.36674727  0.80344069    -0.77070
O357        O  0.53125797  0.32618790  0.86689866    -0.80570
O358        O  0.70141600  0.40089900  0.90235555    -0.80000
O359        O  0.83132464  0.42807999  0.86351665    -0.78320
Eu360      Eu  0.58160894  0.28307850  0.87666378     2.39770
Eu361      Eu  0.74255523  0.30913636  0.83101143     2.39570
Eu362      Eu  0.67625439  0.22708994  0.87556371     2.38400
Eu363      Eu  0.64978055  0.36795569  0.83289606     2.39880
Eu364      Eu  0.73702234  0.37970882  0.87499102     2.39790
O365        O  0.73414752  0.38100961  0.84220641    -0.92740
O366        O  0.66598828  0.29731703  0.88616028    -0.91630
C367        C  0.65480390  0.38537432  0.90943361     1.02430
C368        C  0.85602746  0.42257357  0.84954600     1.01150
C369        C  0.58707156  0.20501915  0.91293371     1.00540
C370        C  0.53392370  0.35611095  0.85312461     1.02550
C371        C  0.74282913  0.39723794  0.79706881     1.01470
C372        C  0.79156241  0.23748077  0.85474359     1.00320
C373        C  0.77354781  0.31204751  0.90735213     1.00380
C374        C  0.72752004  0.48768507  0.85805647     1.02990
H375        H  0.78074548  0.31652954  0.86774296     0.30360
O376        O  0.74589593  0.30952198  0.86366055    -1.04900
H377        H  0.64637939  0.39319094  0.87031843     0.32410
O378        O  0.65221127  0.36569231  0.86545856    -1.07460
O379        O  0.88811901  0.91805874  0.97285810    -0.80020
O380        O  0.07719502  0.87886826  0.03631429    -0.81580
O381        O  0.04667636  0.91358859  0.97144987    -0.78600
O382        O  0.91128277  0.79984371  0.00579217    -0.76980
O383        O  0.86931529  0.80434711  0.03189501    -0.78770
O384        O  0.09958260  0.00504300  0.97051986    -0.79700
O385        O  0.02840143  0.83757201  0.01016463    -0.81030
O386        O  0.92734361  0.86653473  0.97234164    -0.81320
Eu387      Eu  0.98740597  0.88887643  0.99895119     2.39200
O388        O  0.98801631  0.88953690  0.03147894    -0.88830
O389        O  0.99767746  0.97014484  0.98879572    -0.92430
C390        C  0.89560382  0.88161870  0.96583730     1.02260
C391        C  0.05698372  0.84044090  0.02440978     1.02080
C392        C  0.08265629  0.95799898  0.96377058     1.02020
C393        C  0.87358886  0.77867392  0.01797034     0.99880
H394        H  0.09912083  0.95322601  0.00433502     0.29630
O395        O  0.07136580  0.95903323  0.00909525    -1.01220
H396        H  0.88173386  0.87044888  0.00560819     0.29660
O397        O  0.91609266  0.89881971  0.01007073    -1.03760
O398        O  0.11263937  0.02442101  0.06738017    -0.80980
O399        O  0.91511632  0.05644997  0.00511148    -0.80520
O400        O  0.17127502  0.05578592  0.00577269    -0.78960
O401        O  0.94112241  0.86108183  0.06899880    -0.82300
O402        O  0.82719798  0.88386751  0.03570473    -0.80150
O403        O  0.05381888  0.07316047  0.97110922    -0.78800
O404        O  0.08927862  0.13911651  0.03574780    -0.80320
O405        O  0.95245177  0.03168045  0.06835449    -0.82250
O406        O  0.13154816  0.13528469  0.00977452    -0.78990
O407        O  0.89951271  0.94019241  0.07008051    -0.81660
O408        O  0.16712115  0.00655421  0.03114956    -0.77400
O409        O  0.96255106  0.03513851  0.97140274    -0.77430
O410        O  0.83123529  0.93276361  0.01010262    -0.77070
O411        O  0.03224323  0.89865924  0.06885979    -0.80570
O412        O  0.07500186  0.07734895  0.06723902    -0.80000
O413        O  0.96732355  0.10055462  0.03025815    -0.78320
Eu414      Eu  0.07178083  0.95940985  0.04189562     2.39770
Eu415      Eu  0.92626980  0.97981751  0.99925114     2.39570
Eu416      Eu  0.08153974  0.04118451  0.99842753     2.38400
Eu417      Eu  0.91713875  0.89906738  0.04276668     2.39880
Eu418      Eu  0.01114157  0.05141342  0.04153832     2.39790
O419        O  0.92697261  0.98044286  0.03189620    -0.92740
O420        O  0.08134261  0.04017970  0.03087237    -0.91630
C421        C  0.10694758  0.06260865  0.07386721     1.02430
C422        C  0.93533618  0.09536446  0.01676137     1.01150
C423        C  0.19318343  0.03895400  0.01753008     1.00540
C424        C  0.98508585  0.86721064  0.07591188     1.02550
C425        C  0.80581890  0.90140457  0.02397914     1.01470
C426        C  0.00916073  0.06477932  0.96390577     1.00320
C427        C  0.12778047  0.16042406  0.02395539     1.00380
C428        C  0.91606467  0.98811410  0.07617411     1.02990
H429        H  0.01720205  0.08599972  0.00415350     0.30360
O430        O  0.01083381  0.05208102  0.00895132    -1.04900
H431        H  0.00192851  0.97111065  0.06611852     0.32410
O432        O  0.00101829  0.97035727  0.05272778    -1.07460
O433        O  0.73269347  0.41715339  0.40164464    -0.80020
O434        O  0.69233633  0.17661517  0.34447192    -0.81580
O435        O  0.69316192  0.24184764  0.40386490    -0.78600
O436        O  0.82320317  0.34188199  0.36528328    -0.76980
O437        O  0.82756230  0.38773508  0.33897331    -0.78770
O438        O  0.60149593  0.19883950  0.40265242    -0.79700
O439        O  0.74021183  0.21993093  0.37049071    -0.81030
O440        O  0.77123131  0.36501626  0.40144548    -0.81320
Eu441      Eu  0.72979746  0.29797337  0.37611527     2.39200
O442        O  0.72999344  0.29770266  0.34336472    -0.88830
O443        O  0.65888092  0.30838901  0.38638031    -0.92430
C444        C  0.76537798  0.40316312  0.40800937     1.02260
C445        C  0.72182569  0.18103246  0.35875383     1.02080
C446        C  0.64619348  0.20836176  0.41033392     1.02020
C447        C  0.84898786  0.37130080  0.35121051     0.99880
H448        H  0.64025282  0.19209470  0.37014519     0.29630
O449        O  0.64687835  0.22609559  0.36543241    -1.01220
H450        H  0.77576858  0.40727341  0.36874502     0.29660
O451        O  0.74117824  0.37890878  0.36447628    -1.03760
O452        O  0.58480337  0.20101526  0.30675253    -0.80980
O453        O  0.62305525  0.43599231  0.36546040    -0.80520
O454        O  0.52481827  0.14368865  0.36353676    -0.78960
O455        O  0.76246092  0.34310036  0.30485688    -0.82300
O456        O  0.78861608  0.47263152  0.34161407    -0.80150
O457        O  0.55614869  0.27123926  0.40322619    -0.78800
O458        O  0.49334938  0.27545582  0.34464756    -0.80320
O459        O  0.62083951  0.37724868  0.30605384    -0.82250
O460        O  0.48719721  0.22650796  0.37060036    -0.78990
O461        O  0.71231858  0.41447079  0.30519964    -0.81660
O462        O  0.56988104  0.13735491  0.33856995    -0.77400
O463        O  0.61074948  0.36291192  0.40277443    -0.77430
O464        O  0.74974858  0.48027884  0.36803074    -0.77070
O465        O  0.71096992  0.25138840  0.30619530    -0.80570
O466        O  0.54567616  0.25268751  0.30737728    -0.80000
O467        O  0.57333906  0.39395268  0.33967456    -0.78320
Eu468      Eu  0.64803192  0.22591971  0.33277309     2.39770
Eu469      Eu  0.67126060  0.39063184  0.37544311     2.39570
Eu470      Eu  0.57603372  0.23609744  0.37597914     2.38400
Eu471      Eu  0.73955293  0.37844425  0.33180782     2.39880
Eu472      Eu  0.58618970  0.31785025  0.33291741     2.39790
O473        O  0.66967038  0.39009840  0.34280545    -0.92740
O474        O  0.57660224  0.23646612  0.34345187    -0.91630
C475        C  0.55237626  0.21558895  0.30041380     1.02430
C476        C  0.59175134  0.43162768  0.35189919     1.01150
C477        C  0.53001676  0.11786698  0.34992286     1.00540
C478        C  0.74757250  0.29590483  0.29871465     1.02550
C479        C  0.78697666  0.49954224  0.35548826     1.01470
C480        C  0.57388652  0.31813295  0.41004453     1.00320
C481        C  0.46777409  0.24594225  0.35879538     1.00380
C482        C  0.66739462  0.40796284  0.29879600     1.02990
H483        H  0.56126895  0.32539060  0.37030528     0.30360
O484        O  0.58850082  0.31899952  0.36544394    -1.04900
H485        H  0.65591626  0.30638613  0.30840011     0.32410
O486        O  0.65665370  0.30672863  0.32179334    -1.07460
O487        O  0.46601104  0.79676006  0.67614079    -0.80020
O488        O  0.23506976  0.60326741  0.73994695    -0.81580
O489        O  0.30046938  0.76524309  0.70009947    -0.78600
O490        O  0.40519711  0.73905129  0.73755312    -0.76980
O491        O  0.44261103  0.68602014  0.73710591    -0.78770
O492        O  0.24999114  0.72331632  0.67443120    -0.79700
O493        O  0.29093932  0.69446780  0.73930444    -0.81030
O494        O  0.42588918  0.80507981  0.70218405    -0.81320
Eu495      Eu  0.34644473  0.71753655  0.71070494     2.39200
O496        O  0.33418409  0.63536484  0.72138668    -0.88830
O497        O  0.34358941  0.71615101  0.67809368    -0.92430
C498        C  0.46369964  0.82362655  0.68989027     1.02260
C499        C  0.25437967  0.65025926  0.74698308     1.02080
C500        C  0.26992661  0.76170562  0.68634000     1.02020
C501        C  0.43697195  0.72406639  0.74406870     0.99880
H502        H  0.23525642  0.65449711  0.70619632     0.29630
O503        O  0.26194544  0.64744165  0.70122296    -1.01220
H504        H  0.44855272  0.72991225  0.70355468     0.29660
O505        O  0.41372487  0.70219114  0.69934710    -1.03760
O506        O  0.20087441  0.47076356  0.70255628    -0.80980
O507        O  0.42992955  0.66372410  0.63989108    -0.80520
O508        O  0.16631142  0.60316231  0.67996013    -0.78960
O509        O  0.36676300  0.56663971  0.73907129    -0.82300
O510        O  0.49513729  0.66639304  0.69955619    -0.80150
O511        O  0.29344897  0.70243233  0.64105183    -0.78800
O512        O  0.24804244  0.52487122  0.64356934    -0.80320
O513        O  0.35890382  0.49940323  0.67688003    -0.82250
O514        O  0.21245286  0.57896041  0.64363533    -0.78990
O515        O  0.40801410  0.53967453  0.70306515    -0.81660
O516        O  0.16090333  0.55546503  0.70617889    -0.77400
O517        O  0.38513277  0.74082109  0.64043046    -0.77430
O518        O  0.50070254  0.71176183  0.67288225    -0.77070
O519        O  0.27541964  0.53083149  0.73977730    -0.80570
O520        O  0.23950137  0.46261953  0.67610645    -0.80000
O521        O  0.37671265  0.57278640  0.64041232    -0.78320
Eu522      Eu  0.24982405  0.56502927  0.71225489     2.39770
Eu523      Eu  0.41187245  0.70263007  0.66667777     2.39570
Eu524      Eu  0.25895246  0.64505923  0.66850074     2.38400
Eu525      Eu  0.40216631  0.62084147  0.71082040     2.39880
Eu526      Eu  0.31615314  0.55067745  0.66788157     2.39790
O527        O  0.40006733  0.62077069  0.67807633    -0.92740
O528        O  0.24744075  0.56350643  0.67961963    -0.91630
C529        C  0.20289742  0.44378637  0.68876250     1.02430
C530        C  0.41468685  0.61720913  0.63320246     1.01150
C531        C  0.14064189  0.57317726  0.69397536     1.00540
C532        C  0.32006206  0.53769828  0.74656145     1.02550
C533        C  0.52101720  0.69448429  0.68524508     1.01470
C534        C  0.34000358  0.73328920  0.63378165     1.00320
C535        C  0.21594765  0.53951494  0.63709686     1.00380
C536        C  0.38931684  0.50242792  0.69053012     1.02990
H537        H  0.32580231  0.63127122  0.64327080     0.30360
O538        O  0.32752291  0.63219296  0.65665692    -1.04900
H539        H  0.31077150  0.51676713  0.70550093     0.32410
O540        O  0.31758873  0.55088575  0.70074107    -1.07460
O541        O  0.29824159  0.53945890  0.13711672    -0.80020
O542        O  0.49330262  0.77990810  0.19504104    -0.81580
O543        O  0.42636831  0.70925008  0.13693659    -0.78600
O544        O  0.45954671  0.60915319  0.17586089    -0.76980
O545        O  0.41527558  0.55782818  0.20135271    -0.78770
O546        O  0.37408906  0.74777146  0.13748499    -0.79700
O547        O  0.49946095  0.73750200  0.16934973    -0.81030
O548        O  0.38965770  0.59394159  0.13827301    -0.81320
Eu549      Eu  0.41154415  0.65515860  0.16474917     2.39200
O550        O  0.41210939  0.65359972  0.19742243    -0.88830
O551        O  0.32908071  0.64377439  0.15420181    -0.92430
C552        C  0.34603938  0.55589803  0.13091905     1.02260
C553        C  0.51859428  0.77735881  0.18068040     1.02080
C554        C  0.40968220  0.73929172  0.13004716     1.02020
C555        C  0.45385647  0.57693433  0.18940257     0.99880
H556        H  0.42410254  0.75855932  0.17018868     0.29630
O557        O  0.39731384  0.72409263  0.17509972    -1.01220
H558        H  0.34745564  0.54487327  0.17073164     0.29660
O559        O  0.34101030  0.57230317  0.17526320    -1.03760
O560        O  0.36113231  0.74841308  0.23271997    -0.80980
O561        O  0.16446781  0.50587949  0.17267584    -0.80520
O562        O  0.36024827  0.80520801  0.17650104    -0.78960
O563        O  0.39864337  0.60553404  0.23486826    -0.82300
O564        O  0.29211608  0.47668073  0.19712308    -0.80150
O565        O  0.25558468  0.67636518  0.13801306    -0.78800
O566        O  0.19560822  0.66949192  0.19884590    -0.80320
O567        O  0.22614200  0.57473084  0.23509740    -0.82250
O568        O  0.23430857  0.72000108  0.17290809    -0.78990
O569        O  0.27744862  0.53561078  0.23552275    -0.81660
O570        O  0.40981945  0.81167175  0.20217033    -0.77400
O571        O  0.22265102  0.58584918  0.13705451    -0.77430
O572        O  0.24525605  0.47097452  0.17058593    -0.77070
O573        O  0.43671688  0.69696994  0.23460702    -0.80570
O574        O  0.26994889  0.69308964  0.23235310    -0.80000
O575        O  0.15865980  0.54443324  0.19946738    -0.78320
Eu576      Eu  0.40066576  0.72389091  0.20766179     2.39770
Eu577      Eu  0.25891636  0.55974363  0.16367449     2.39570
Eu578      Eu  0.31431746  0.71204191  0.16485788     2.38400
Eu579      Eu  0.33907461  0.57023884  0.20802809     2.39880
Eu580      Eu  0.24595577  0.62686857  0.20718349     2.39790
O581        O  0.25696231  0.55686364  0.19646163    -0.92740
O582        O  0.31690343  0.70999168  0.19717741    -0.91630
C583        C  0.31367426  0.73295958  0.23899619     1.02430
C584        C  0.13852377  0.50766576  0.18682067     1.01150
C585        C  0.39097589  0.83152280  0.19037303     1.00540
C586        C  0.42915676  0.65243100  0.24178338     1.02550
C587        C  0.26233074  0.45110271  0.18303798     1.01470
C588        C  0.22693846  0.62972463  0.13074935     1.00320
C589        C  0.19699424  0.69961031  0.18550255     1.00380
C590        C  0.24122279  0.54427651  0.24245688     1.02990
H591        H  0.20940249  0.62024107  0.17022788     0.30360
O592        O  0.24399721  0.62729588  0.17466344    -1.04900
H593        H  0.32894813  0.64179564  0.23159187     0.32410
O594        O  0.32888282  0.64111801  0.21820891    -1.07460
O595        O  0.03256975  0.08056420  0.56843886    -0.80020
O596        O  0.83388579  0.84452012  0.50808721    -0.81580
O597        O  0.86445404  0.00567923  0.53039754    -0.78600
O598        O  0.89030761  0.89837556  0.56723443    -0.76980
O599        O  0.94440137  0.86226534  0.56582155    -0.78770
O600        O  0.90685620  0.05643857  0.50480042    -0.79700
O601        O  0.82821044  0.88648986  0.53372275    -0.81030
O602        O  0.94051628  0.02784575  0.56758595    -0.81320
Eu603      Eu  0.91612706  0.96372349  0.54162847     2.39200
O604        O  0.92830995  0.89467384  0.53020188    -0.88830
O605        O  0.98830043  0.04574695  0.53147630    -0.92430
C606        C  0.98522737  0.06516994  0.57471995     1.02260
C607        C  0.80717403  0.84827230  0.52173435     1.02080
C608        C  0.86773727  0.03581487  0.51647471     1.02020
C609        C  0.90599240  0.86635529  0.57308207     0.99880
H610        H  0.88165657  0.95750595  0.50425819     0.29630
O611        O  0.91603865  0.96468520  0.50895517    -1.01220
H612        H  0.99850901  0.97460116  0.56592055     0.29660
O613        O  0.99914049  0.97603419  0.55252816    -1.03760
O614        O  0.96982590  0.87639604  0.47150253    -0.80980
O615        O  0.16775734  0.10608822  0.53196757    -0.80520
O616        O  0.92588583  0.01132422  0.47168382    -0.78960
O617        O  0.96735949  0.81442747  0.52948395    -0.82300
O618        O  0.06938997  0.94039571  0.56822819    -0.80150
O619        O  0.01945454  0.13726210  0.51480753    -0.78800
O620        O  0.10263891  0.05686648  0.47215733    -0.80320
O621        O  0.13372921  0.95108937  0.50933740    -0.82250
O622        O  0.04895702  0.09381037  0.47350565    -0.78990
O623        O  0.08847005  0.89752244  0.53418368    -0.81660
O624        O  0.89135582  0.92053799  0.47075935    -0.77400
O625        O  0.07561001  0.14665922  0.53893180    -0.77430
O626        O  0.10776373  0.03172149  0.56893958    -0.77070
O627        O  0.91807443  0.80829662  0.50359688    -0.80570
O628        O  0.06120458  0.93121156  0.47235454    -0.80000
O629        O  0.17503122  0.06717717  0.50551337    -0.78320
Eu630      Eu  0.92908209  0.89668657  0.49754764     2.39770
Eu631      Eu  0.07168414  0.05963980  0.54235532     2.39570
Eu632      Eu  0.98626263  0.04934983  0.49911468     2.38400
Eu633      Eu  0.01070330  0.90697156  0.54093133     2.39880
Eu634      Eu  0.08339834  0.99440046  0.49826826     2.39790
O635        O  0.08224009  0.99045990  0.53084451    -0.92740
O636        O  0.99993029  0.98121654  0.48770702    -0.91630
C637        C  0.01754482  0.89233124  0.46531206     1.02430
C638        C  0.19518001  0.10288533  0.51834686     1.01150
C639        C  0.89615093  0.96449582  0.46432849     1.00540
C640        C  0.93718178  0.78893333  0.51551066     1.02550
C641        C  0.10068766  0.98677032  0.57543655     1.01470
C642        C  0.04973480  0.16320627  0.52883921     1.00320
C643        C  0.08605446  0.08794991  0.46609531     1.00380
C644        C  0.12788383  0.91812118  0.52258179     1.02990
H645        H  0.09875088  0.09844278  0.50551705     0.30360
O646        O  0.07056978  0.06359828  0.50963153    -1.04900
H647        H  0.01952802  0.88364926  0.50377689     0.32410
O648        O  0.01260047  0.91067385  0.50837817    -1.07460
C649        C  0.96212364  0.06364466  0.93485274    -0.05670
C650        C  0.00988087  0.08910584  0.94548817     0.00250
C651        C  0.05535523  0.13599499  0.93821754    -0.08320
C652        C  0.04958502  0.15723158  0.92135072    -0.05690
C653        C  0.00192601  0.13162767  0.91074652     0.00240
C654        C  0.95796329  0.08266076  0.91730047    -0.08230
C655        C  0.90634982  0.04890378  0.90636930     0.62150
H656        H  0.92766198  0.02713820  0.94007750     0.12850
H657        H  0.08284976  0.19471823  0.91623558     0.12860
C658        C  0.10982876  0.16419419  0.94792793     0.62390
F659        F  0.88723731  0.99487224  0.90931443    -0.22780
F660        F  0.91394794  0.05801389  0.88747631    -0.20110
F661        F  0.86773523  0.06010788  0.91226054    -0.19790
F662        F  0.13065448  0.13059119  0.94859168    -0.19840
F663        F  0.10447810  0.17837092  0.96571575    -0.20160
F664        F  0.14689506  0.21052390  0.93870168    -0.22830
C665        C  0.87522997  0.26243422  0.87144844    -0.05670
C666        C  0.83769514  0.22992836  0.85797415     0.00250
C667        C  0.84386131  0.19047332  0.84892041    -0.08320
C668        C  0.88608376  0.18259666  0.85451679    -0.05690
C669        C  0.92136145  0.21272933  0.86891214     0.00240
C670        C  0.91649291  0.25371787  0.87744631    -0.08230
C671        C  0.95426801  0.28749012  0.89292131     0.62150
H672        H  0.87076817  0.29378477  0.87769192     0.12850
H673        H  0.89152573  0.15234584  0.84788055     0.12860
C674        C  0.80540504  0.15656850  0.83374505     0.62390
F675        F  0.94309430  0.32585790  0.89905680    -0.22780
F676        F  0.00687982  0.31352642  0.88670439    -0.20110
F677        F  0.94914435  0.25495983  0.90784383    -0.19790
F678        F  0.80621902  0.18925328  0.81951341    -0.19840
F679        F  0.75409262  0.12759130  0.84095207    -0.20160
F680        F  0.81876259  0.12092825  0.82643732    -0.22830
C681        C  0.32934980  0.44374171  0.78125741    -0.05670
C682        C  0.31979481  0.46122136  0.79803268     0.00250
C683        C  0.30967593  0.50424001  0.79801547    -0.08320
C684        C  0.30865379  0.52765449  0.78085776    -0.05690
C685        C  0.31823620  0.50979880  0.76407626     0.00240
C686        C  0.32888269  0.46739267  0.76429257    -0.08230
C687        C  0.33733673  0.44564844  0.74652142     0.62150
H688        H  0.33644094  0.41051844  0.78157711     0.12850
H689        H  0.30107111  0.56050973  0.78042053     0.12860
C690        C  0.30219201  0.52665047  0.81596840     0.62390
F691        F  0.34331655  0.40193188  0.74972010    -0.22780
F692        F  0.38327231  0.48468695  0.73773732    -0.20110
F693        F  0.29304442  0.42991480  0.73518495    -0.19790
F694        F  0.34507783  0.53969336  0.82774653    -0.19840
F695        F  0.25498597  0.48931144  0.82455800    -0.20160
F696        F  0.29956361  0.57241427  0.81289444    -0.22830
C697        C  0.49893463  0.41788872  0.84936660    -0.05670
C698        C  0.48858797  0.36518480  0.85035577     0.00250
C699        C  0.43612632  0.32184206  0.84665782    -0.08320
C700        C  0.39708284  0.33312462  0.84020774    -0.05690
C701        C  0.40681586  0.38581694  0.83927074     0.00240
C702        C  0.45803441  0.42894319  0.84482961    -0.08230
C703        C  0.46930325  0.48584139  0.84693933     0.62150
H704        H  0.53927612  0.45038860  0.85244992     0.12850
H705        H  0.35771227  0.30035208  0.83630903     0.12860
C706        C  0.42107276  0.26387676  0.84973766     0.62390
F707        F  0.51572224  0.51704775  0.85714506    -0.22780
F708        F  0.42723871  0.48545353  0.85613887    -0.20110
F709        F  0.47602812  0.50975124  0.82974519    -0.19790
F710        F  0.42265236  0.25470079  0.86851884    -0.19840
F711        F  0.45669548  0.25354711  0.84068845    -0.20160
F712        F  0.36978620  0.22797443  0.84332024    -0.22830
C713        C  0.15003134  0.27756551  0.87123840    -0.05670
C714        C  0.10711808  0.24886172  0.85884230     0.00250
C715        C  0.11652210  0.25630829  0.83950083    -0.08320
C716        C  0.16847261  0.29411345  0.83334507    -0.05690
C717        C  0.21140064  0.32335559  0.84575776     0.00240
C718        C  0.20203545  0.31506307  0.86515279    -0.08230
C719        C  0.24524654  0.34534092  0.87977108     0.62150
H720        H  0.14216144  0.27140338  0.88600491     0.12850
H721        H  0.17590673  0.30015470  0.81854666     0.12860
C722        C  0.07368353  0.22574779  0.82486993     0.62390
F723        F  0.22269436  0.34772144  0.89636448    -0.22780
F724        F  0.28063988  0.39757471  0.87423362    -0.20110
F725        F  0.27318440  0.31914188  0.88312603    -0.19790
F726        F  0.05702716  0.25896644  0.81742230    -0.19840
F727        F  0.02946900  0.17994098  0.83182691    -0.20160
F728        F  0.09484907  0.20997016  0.81079307    -0.22830
C729        C  0.13077286  0.63600368  0.09639264    -0.05670
C730        C  0.14694002  0.62305158  0.07991616     0.00250
C731        C  0.19049900  0.61381301  0.08006820    -0.08320
C732        C  0.21444218  0.61452438  0.09716177    -0.05690
C733        C  0.19789071  0.62698969  0.11364822     0.00240
C734        C  0.15648397  0.63942641  0.11332266    -0.08230
C735        C  0.13978261  0.65654507  0.13067990     0.62150
H736        H  0.09809069  0.64404308  0.09579821     0.12850
H737        H  0.24718821  0.60655729  0.09774649     0.12860
C738        C  0.21281155  0.60529764  0.06225747     0.62390
F739        F  0.09489748  0.66101942  0.12763159    -0.22780
F740        F  0.18132029  0.70593445  0.13640415    -0.20110
F741        F  0.12767207  0.61936635  0.14468967    -0.19790
F742        F  0.22201442  0.64500202  0.04950699    -0.19840
F743        F  0.17663394  0.55580778  0.05489987    -0.20160
F744        F  0.26113779  0.60727605  0.06525310    -0.22830
C745        C  0.03931471  0.71181928  0.04490801    -0.05670
C746        C  0.08030023  0.70864032  0.03600290     0.00250
C747        C  0.11415096  0.74886542  0.02318787    -0.08320
C748        C  0.10478829  0.79118019  0.01938436    -0.05690
C749        C  0.06333066  0.79413696  0.02828798     0.00240
C750        C  0.02983707  0.75368515  0.04127513    -0.08230
C751        C  0.98429929  0.75248043  0.05208095     0.62150
H752        H  0.01423700  0.68091666  0.05489486     0.12850
H753        H  0.13016926  0.82263777  0.00965520     0.12860
C754        C  0.16001044  0.74702301  0.01387706     0.62390
F755        F  0.93813685  0.70260595  0.05036627    -0.22780
F756        F  0.97214617  0.79038973  0.04616992    -0.20110
F757        F  0.99847274  0.76088166  0.07061497    -0.19790
F758        F  0.13993610  0.70007602  0.00390829    -0.19840
F759        F  0.19551072  0.74875805  0.02719363    -0.20160
F760        F  0.18819147  0.78983062  0.00182425    -0.22830
C761        C  0.87052389  0.17878241  0.00633351    -0.05670
C762        C  0.91661554  0.22994841  0.00416817     0.00250
C763        C  0.96834039  0.23629328  0.00614492    -0.08320
C764        C  0.97174909  0.19111924  0.01079246    -0.05690
C765        C  0.92599156  0.14017969  0.01319094     0.00240
C766        C  0.87426807  0.13334679  0.01065256    -0.08230
C767        C  0.82349216  0.07868673  0.01255132     0.62150
H768        H  0.83139347  0.17473821  0.00449496     0.12850
H769        H  0.01088346  0.19494281  0.01144294     0.12860
C770        C  0.02107433  0.28886026  0.00323180     0.62390
F771        F  0.77754268  0.08222467  0.01181398    -0.22780
F772        F  0.82385558  0.05549390  0.02935870    -0.20110
F773        F  0.82065405  0.04582786  0.99826846    -0.19790
F774        F  0.04567583  0.30775071  0.02024812    -0.19840
F775        F  0.01473855  0.32803616  0.99465993    -0.20160
F776        F  0.05489591  0.28026251  0.99217409    -0.22830
C777        C  0.83608987  0.36329424  0.93330758    -0.05670
C778        C  0.80481249  0.31405594  0.92424327     0.00250
C779        C  0.80310042  0.26788054  0.93200983    -0.08320
C780        C  0.82138678  0.27067949  0.95021218    -0.05690
C781        C  0.85367300  0.31977793  0.95929119     0.00240
C782        C  0.86482828  0.36778055  0.94970776    -0.08230
C783        C  0.90809644  0.42416401  0.95529898     0.62150
H784        H  0.84033478  0.39933610  0.92706191     0.12850
H785        H  0.81150427  0.23356515  0.95711343     0.12860
C786        C  0.78929844  0.21795602  0.92087748     0.62390
F787        F  0.93067998  0.45599877  0.93969574    -0.22780
F788        F  0.94974121  0.42432768  0.96487618    -0.20110
F789        F  0.88561742  0.44722365  0.96589465    -0.19790
F790        F  0.81712579  0.23323580  0.90442031    -0.19840
F791        F  0.73521189  0.18736129  0.91708325    -0.20160
F792        F  0.80412185  0.18544063  0.93014817    -0.22830
C793        C  0.99785932  0.44463397  0.00885841    -0.05670
C794        C  0.94723034  0.41086245  0.01682754     0.00250
C795        C  0.93007914  0.42837152  0.03208837    -0.08320
C796        C  0.96500058  0.48012477  0.03906113    -0.05690
C797        C  0.01560799  0.51393671  0.03098015     0.00240
C798        C  0.03254641  0.49625655  0.01567347    -0.08230
C799        C  0.08705514  0.53179348  0.00667818     0.62150
H800        H  0.00983244  0.43006577  0.99711611     0.12850
H801        H  0.95325484  0.49460500  0.05088126     0.12860
C802        C  0.87545312  0.39233356  0.04080181     0.62390
F803        F  0.09578647  0.50640697  0.99210137    -0.22780
F804        F  0.12747872  0.54552340  0.01961164    -0.20110
F805        F  0.09015286  0.57794263  0.99984672    -0.19790
F806        F  0.87217629  0.34565471  0.04716253    -0.19840
F807        F  0.83551732  0.37957264  0.02773197    -0.20160
F808        F  0.86643821  0.41678147  0.05561311    -0.22830
C809        C  0.05454601  0.67593344  0.18279049    -0.05670
C810        C  0.06479187  0.72707161  0.17802902     0.00250
C811        C  0.11852910  0.77088294  0.17880864    -0.08320
C812        C  0.16086767  0.76042510  0.18038499    -0.05690
C813        C  0.15080827  0.70871773  0.18428251     0.00240
C814        C  0.09647056  0.66655010  0.18712818    -0.08230
C815        C  0.08198922  0.61155078  0.19439623     0.62150
H816        H  0.01317361  0.64311220  0.18291281     0.12850
H817        H  0.20215098  0.79332698  0.17961164     0.12860
C818        C  0.13284312  0.82881401  0.17968778     0.62390
F819        F  0.02690282  0.57638948  0.19490053    -0.22780
F820        F  0.10098723  0.61569653  0.21232757    -0.20110
F821        F  0.10440732  0.59013309  0.18310305    -0.19790
F822        F  0.08808241  0.83398734  0.18104784    -0.19840
F823        F  0.16231334  0.85624365  0.16418881    -0.20160
F824        F  0.16367018  0.85210629  0.19535882    -0.22830
C825        C  0.03055120  0.85562246  0.10327404    -0.05670
C826        C  0.98236387  0.83727525  0.09334317     0.00250
C827        C  0.93479540  0.79157529  0.10026014    -0.08320
C828        C  0.93831781  0.76647843  0.11659619    -0.05690
C829        C  0.98571453  0.78734751  0.12734230     0.00240
C830        C  0.03329790  0.83321483  0.12030481    -0.08230
C831        C  0.08713788  0.86090766  0.13041751     0.62150
H832        H  0.06695618  0.88908649  0.09770405     0.12850
H833        H  0.90297147  0.73014606  0.12131980     0.12860
C834        C  0.88010256  0.76872833  0.09084905     0.62390
F835        F  0.12195426  0.91144204  0.12338611    -0.22780
F836        F  0.11286736  0.83221124  0.12840870    -0.20110
F837        F  0.07945483  0.86720289  0.14885810    -0.19790
F838        F  0.88307287  0.75586696  0.07264188    -0.19840
F839        F  0.86362148  0.80583111  0.09141539    -0.20160
F840        F  0.84071892  0.72256708  0.09954559    -0.22830
C841        C  0.64564064  0.49001128  0.26201996    -0.05670
C842        C  0.66358718  0.47628727  0.24612874     0.00250
C843        C  0.68234008  0.43994145  0.24766512    -0.08320
C844        C  0.68669170  0.42183518  0.26535724    -0.05690
C845        C  0.66821861  0.43495362  0.28122898     0.00240
C846        C  0.64643260  0.46893245  0.27958127    -0.08230
C847        C  0.62554730  0.48413222  0.29629799     0.62150
H848        H  0.63111239  0.51764353  0.26053184     0.12850
H849        H  0.70221344  0.39494762  0.26671689     0.12860
C850        C  0.69714082  0.41876396  0.23099158     0.62390
F851        F  0.61287362  0.52299139  0.29201524    -0.22780
F852        F  0.66449076  0.50420809  0.30996509    -0.20110
F853        F  0.57954509  0.43965180  0.30299017    -0.19790
F854        F  0.75222732  0.44859513  0.22851416    -0.19840
F855        F  0.67175191  0.42083411  0.21495179    -0.20160
F856        F  0.68158983  0.36562070  0.23388301    -0.22830
C857        C  0.58177531  0.58406791  0.20645074    -0.05670
C858        C  0.57470201  0.53539670  0.20068805     0.00250
C859        C  0.52737843  0.49895983  0.19100131    -0.08320
C860        C  0.48817540  0.51348588  0.18734523    -0.05690
C861        C  0.49673195  0.56401628  0.19255420     0.00240
C862        C  0.54485204  0.59982517  0.20210964    -0.08230
C863        C  0.56324793  0.65696313  0.20688866     0.62150
H864        H  0.61840431  0.61155471  0.21388802     0.12850
H865        H  0.45104911  0.48588363  0.18029142     0.12860
C866        C  0.51931935  0.44586137  0.18454771     0.62390
F867        F  0.57209832  0.66494652  0.22565762    -0.22780
F868        F  0.52767259  0.67302059  0.20157921    -0.20110
F869        F  0.61212373  0.68823279  0.19820477    -0.19790
F870        F  0.51752494  0.41549117  0.19971013    -0.19840
F871        F  0.56155526  0.45475839  0.17319621    -0.20160
F872        F  0.47200218  0.41691186  0.17466741    -0.22830
C873        C  0.84741549  0.62229238  0.17621485    -0.05670
C874        C  0.87245455  0.67679660  0.18079711     0.00250
C875        C  0.84552760  0.69483508  0.19229561    -0.08320
C876        C  0.79419048  0.65693386  0.19921003    -0.05690
C877        C  0.76966963  0.60222794  0.19486305     0.00240
C878        C  0.79616324  0.58454554  0.18301230    -0.08230
C879        C  0.77016101  0.52607506  0.17756502     0.62150
H880        H  0.86872534  0.60952288  0.16728216     0.12850
H881        H  0.77295123  0.66953748  0.20824177     0.12860
C882        C  0.87142299  0.75351189  0.19739035     0.62390
F883        F  0.80125448  0.51784744  0.16501686    -0.22780
F884        F  0.72053201  0.50918298  0.16948527    -0.20110
F885        F  0.76332074  0.49514292  0.19311881    -0.19790
F886        F  0.88014410  0.78400417  0.18153310    -0.19840
F887        F  0.92014638  0.77027183  0.20614988    -0.20160
F888        F  0.83929370  0.76247285  0.20921125    -0.22830
C889        C  0.31400995  0.76278582  0.58448067    -0.05670
C890        C  0.33653828  0.81851492  0.58506825     0.00250
C891        C  0.36160681  0.84657907  0.60159931    -0.08320
C892        C  0.36341070  0.81757696  0.61711931    -0.05690
C893        C  0.34064659  0.76178065  0.61654809     0.00240
C894        C  0.31539266  0.73369444  0.60001430    -0.08230
C895        C  0.29087601  0.67335450  0.59869685     0.62150
H896        H  0.29572812  0.74230226  0.57162335     0.12850
H897        H  0.38186014  0.83812472  0.62995322     0.12860
C898        C  0.38566497  0.90679162  0.60282761     0.62390
F899        F  0.27414721  0.65500075  0.58082775    -0.22780
F900        F  0.24659052  0.64756144  0.61019775    -0.20110
F901        F  0.32846797  0.65970045  0.60395097    -0.19790
F902        F  0.34678067  0.91946263  0.59849736    -0.19840
F903        F  0.42799012  0.93272230  0.59051851    -0.20160
F904        F  0.40494084  0.92578938  0.62045214    -0.22830
C905        C  0.20406708  0.84582797  0.53372097    -0.05670
C906        C  0.25457821  0.88923783  0.53873511     0.00250
C907        C  0.26421153  0.94227806  0.53709234    -0.08320
C908        C  0.22281666  0.94987118  0.53026627    -0.05690
C909        C  0.17165491  0.90645385  0.52595486     0.00240
C910        C  0.16224333  0.85355915  0.52734386    -0.08230
C911        C  0.10915905  0.80592437  0.52117382     0.62150
H912        H  0.19775691  0.80575358  0.53476865     0.12850
H913        H  0.22933411  0.99001964  0.52911829     0.12860
C914        C  0.31708949  0.99088010  0.54321994     0.62390
F915        F  0.11092846  0.75915759  0.52088409    -0.22780
F916        F  0.09753011  0.81554728  0.50344352    -0.20110
F917        F  0.06837854  0.79810285  0.53304556    -0.19790
F918        F  0.35608145  0.00405667  0.52987949    -0.19840
F919        F  0.33428410  0.98047751  0.55985071    -0.20160
F920        F  0.31159251  0.03499613  0.54587584    -0.22830
C921        C  0.59981372  0.12308542  0.42824100    -0.05670
C922        C  0.64329228  0.17623686  0.42711471     0.00250
C923        C  0.68359996  0.19529303  0.44126333    -0.08320
C924        C  0.67730977  0.16078804  0.45614733    -0.05690
C925        C  0.63428794  0.10766545  0.45705155     0.00240
C926        C  0.59553056  0.08778200  0.44256263    -0.08230
C927        C  0.55157732  0.02900029  0.44142877     0.62150
H928        H  0.56994016  0.10839984  0.41727827     0.12850
H929        H  0.70683073  0.17478640  0.46722086     0.12860
C930        C  0.73362739  0.25116369  0.44093740     0.62390
F931        F  0.52919623  0.01583336  0.42383526    -0.22780
F932        F  0.51079477  0.01801993  0.45376740    -0.20110
F933        F  0.57254091  0.99655859  0.44543700    -0.19790
F934        F  0.71958404  0.28947520  0.43817467    -0.19840
F935        F  0.76776657  0.25482720  0.42691796    -0.20160
F936        F  0.76213135  0.26309164  0.45744587    -0.22830
C937        C  0.77604760  0.08559289  0.49805702    -0.05670
C938        C  0.72543821  0.03848171  0.49938126     0.00250
C939        C  0.72247197  0.99138553  0.50674168    -0.08320
C940        C  0.76928362  0.99498525  0.51417376    -0.05690
C941        C  0.82025040  0.04141105  0.51217759     0.00240
C942        C  0.82382052  0.08729930  0.50339125    -0.08230
C943        C  0.87723228  0.13760987  0.49907553     0.62150
H944        H  0.77807040  0.12121538  0.49237156     0.12850
H945        H  0.76658766  0.95919354  0.52008503     0.12860
C946        C  0.67236114  0.93576199  0.50593926     0.62390
F947        F  0.87088733  0.18017782  0.49398138    -0.22780
F948        F  0.90226076  0.12808116  0.48457475    -0.20110
F949        F  0.90991783  0.15283412  0.51448019    -0.19790
F950        F  0.63548471  0.93240886  0.49291110    -0.19840
F951        F  0.64838692  0.92202029  0.52322870    -0.20160
F952        F  0.68630877  0.89842025  0.50101981    -0.22830
C953        C  0.47485473  0.97956624  0.53594730    -0.05670
C954        C  0.43984646  0.92648304  0.53041084     0.00250
C955        C  0.45324907  0.90479464  0.51534609    -0.08320
C956        C  0.50194004  0.93772525  0.50602539    -0.05690
C957        C  0.53665870  0.99102158  0.51141908     0.00240
C958        C  0.52354790  0.01249544  0.52662683    -0.08230
C959        C  0.56086956  0.06978325  0.53282768     0.62150
H960        H  0.46330597  0.99508167  0.54752504     0.12850
H961        H  0.51331351  0.92229358  0.49437625     0.12860
C962        C  0.41614077  0.84731291  0.50926964     0.62390
F963        F  0.54063847  0.08268365  0.54799871    -0.22780
F964        F  0.56774399  0.10475803  0.51851666    -0.20110
F965        F  0.61035814  0.07669003  0.53770449    -0.19790
F966        F  0.36704212  0.84035596  0.50380529    -0.19840
F967        F  0.40820588  0.81281766  0.52387398    -0.20160
F968        F  0.43726634  0.83375602  0.49453394    -0.22830
C969        C  0.29192720  0.90030726  0.67621030    -0.05670
C970        C  0.24015597  0.88893883  0.67121022     0.00250
C971        C  0.19660797  0.83493523  0.67264701    -0.08320
C972        C  0.20767341  0.79451405  0.67798376    -0.05690
C973        C  0.25967499  0.80648557  0.68305411     0.00240
C974        C  0.30228276  0.86064183  0.68258198    -0.08230
C975        C  0.35941501  0.87668884  0.68773604     0.62150
H976        H  0.32501662  0.94118065  0.67479695     0.12850
H977        H  0.17546111  0.75291516  0.67817729     0.12860
C978        C  0.13854727  0.81868457  0.66873490     0.62390
F979        F  0.39476431  0.93093007  0.68497665    -0.22780
F980        F  0.37572313  0.84854884  0.67686759    -0.20110
F981        F  0.36213668  0.86580620  0.70629499    -0.19790
F982        F  0.12824605  0.81044414  0.64993496    -0.19840
F983        F  0.12802477  0.85755406  0.67472377    -0.20160
F984        F  0.10330178  0.77144423  0.67790192    -0.22830
C985        C  0.20062943  0.98170755  0.60882841    -0.05670
C986        C  0.17692257  0.97946197  0.62593149     0.00250
C987        C  0.12826919  0.97977283  0.62651625    -0.08320
C988        C  0.10633748  0.98526148  0.60977553    -0.05690
C989        C  0.12969677  0.98744557  0.59257712     0.00240
C990        C  0.17690548  0.98435541  0.59205500    -0.08230
C991        C  0.20071078  0.98171456  0.57384237     0.62150
H992        H  0.23761499  0.98077932  0.60876577     0.12850
H993        H  0.07007091  0.98669993  0.61005037     0.12860
C994        C  0.09888468  0.97241767  0.64468987     0.62390
F995        F  0.24774628  0.98098553  0.57641282    -0.22780
F996        F  0.21185916  0.02562548  0.56291379    -0.20110
F997        F  0.16410374  0.93517022  0.56490446    -0.19790
F998        F  0.12846879  0.01642974  0.65591815    -0.19840
F999        F  0.09157991  0.92691435  0.65371655    -0.20160
F1000       F  0.04865730  0.96634338  0.64192731    -0.22830
C1001       C  0.45075248  0.41237985  0.69075116    -0.05670
C1002       C  0.41406446  0.37038853  0.70229133     0.00250
C1003       C  0.36648404  0.36896833  0.70786047    -0.08320
C1004       C  0.36003544  0.41260406  0.70320146    -0.05690
C1005       C  0.39874530  0.45686733  0.69297513     0.00240
C1006       C  0.44250811  0.45447033  0.68520761    -0.08230
C1007       C  0.47899048  0.49203083  0.67012805     0.62150
H1008       H  0.48522985  0.41128003  0.68548751     0.12850
H1009       H  0.32389234  0.41210881  0.70720293     0.12860
C1010       C  0.32259492  0.32131484  0.71853985     0.62390
F1011       F  0.53179531  0.51817253  0.67620806    -0.22780
F1012       F  0.46587965  0.52975460  0.66471745    -0.20110
F1013       F  0.47483929  0.46217775  0.65467127    -0.19790
F1014       F  0.34364442  0.31320900  0.73469157    -0.19840
F1015       F  0.30150331  0.27571299  0.70780098    -0.20160
F1016       F  0.28057958  0.32881939  0.72324665    -0.22830
C1017       C  0.46035411  0.28058833  0.76288429    -0.05670
C1018       C  0.49006877  0.29076318  0.74652687     0.00250
C1019       C  0.54213915  0.29757435  0.74729709    -0.08320
C1020       C  0.56297749  0.29406070  0.76466677    -0.05690
C1021       C  0.53298373  0.28344473  0.78103969     0.00240
C1022       C  0.48111339  0.27701095  0.78018167    -0.08230
C1023       C  0.44843877  0.26718215  0.79756808     0.62150
H1024       H  0.42036062  0.27494955  0.76193094     0.12850
H1025       H  0.60305818  0.29991625  0.76563824     0.12860
C1026       C  0.57545642  0.30912134  0.72985596     0.62390
F1027       F  0.39888903  0.26190264  0.79390454    -0.22780
F1028       F  0.47649172  0.31005540  0.80938407    -0.20110
F1029       F  0.43975081  0.22049153  0.80603942    -0.19790
F1030       F  0.58169774  0.35471452  0.72123101    -0.19840
F1031       F  0.54998755  0.26633826  0.71782344    -0.20160
F1032       F  0.62606457  0.31741678  0.73373362    -0.22830
C1033       C  0.37764346  0.17478961  0.67711648    -0.05670
C1034       C  0.36817181  0.18079171  0.69572354     0.00250
C1035       C  0.32496192  0.13737132  0.70536571    -0.08320
C1036       C  0.29215091  0.08931901  0.69577512    -0.05690
C1037       C  0.30121118  0.08350144  0.67709349     0.00240
C1038       C  0.34524755  0.12653955  0.66758680    -0.08230
C1039       C  0.35903824  0.12166308  0.64763565     0.62150
H1040       H  0.41070027  0.20863579  0.67006114     0.12850
H1041       H  0.25886860  0.05561026  0.70279578     0.12860
C1042       C  0.31268864  0.14168619  0.72555301     0.62390
F1043       F  0.40904763  0.16410700  0.64257665    -0.22780
F1044       F  0.32141439  0.12144650  0.63567700    -0.20110
F1045       F  0.36005101  0.07487346  0.64546675    -0.19790
F1046       F  0.30908200  0.18694074  0.72803432    -0.19840
F1047       F  0.35282749  0.14453864  0.73685449    -0.20160
F1048       F  0.26446900  0.09767054  0.73120164    -0.22830
C1049       C  0.75724247  0.12168728  0.34933045    -0.05670
C1050       C  0.73239462  0.13660645  0.36279133     0.00250
C1051       C  0.71644054  0.10767988  0.37986502    -0.08320
C1052       C  0.72517086  0.06490363  0.38275201    -0.05690
C1053       C  0.74998504  0.05009978  0.36947124     0.00240
C1054       C  0.76725693  0.07927141  0.35252869    -0.08230
C1055       C  0.79777146  0.06698465  0.33828881     0.62150
H1056       H  0.76938560  0.14398962  0.33639838     0.12850
H1057       H  0.71246145  0.04213648  0.39559714     0.12860
C1058       C  0.68990742  0.12127336  0.39514172     0.62390
F1059       F  0.81632989  0.10387664  0.32385290    -0.22780
F1060       F  0.76473987  0.01671049  0.33088208    -0.20110
F1061       F  0.84172061  0.06846962  0.34663926    -0.19790
F1062       F  0.64593450  0.12232907  0.38812502    -0.19840
F1063       F  0.72689367  0.17054902  0.40236360    -0.20160
F1064       F  0.67206152  0.08423276  0.40953638    -0.22830
C1065       C  0.79110794  0.96198462  0.43121561    -0.05670
C1066       C  0.81069256  0.95776629  0.41395404     0.00250
C1067       C  0.85750790  0.95378396  0.41325371    -0.08320
C1068       C  0.88368297  0.95481364  0.43001064    -0.05690
C1069       C  0.86513190  0.96091101  0.44725629     0.00240
C1070       C  0.81747611  0.96339112  0.44791248    -0.08230
C1071       C  0.79497278  0.96788037  0.46623961     0.62150
H1072       H  0.75495564  0.96441518  0.43147734     0.12850
H1073       H  0.91935011  0.95161457  0.42975605     0.12860
C1074       C  0.88022356  0.94988124  0.39479913     0.62390
F1075       F  0.74635966  0.96590299  0.46411553    -0.22780
F1076       F  0.83122123  0.01618885  0.47420807    -0.20110
F1077       F  0.78694831  0.92636870  0.47793255    -0.19790
F1078       F  0.89251650  0.99434885  0.38400353    -0.19840
F1079       F  0.84290167  0.90412547  0.38558041    -0.20160
F1080       F  0.92651865  0.94751737  0.39702138    -0.22830
C1081       C  0.60620359  0.56828435  0.34487640    -0.05670
C1082       C  0.55328064  0.55518237  0.34109646     0.00250
C1083       C  0.51151201  0.50042739  0.34195282    -0.08320
C1084       C  0.52536739  0.46092152  0.34553155    -0.05690
C1085       C  0.57863416  0.47471219  0.34953409     0.00240
C1086       C  0.61947436  0.52966030  0.34978598    -0.08230
C1087       C  0.67730924  0.54831370  0.35503300     0.62150
H1088       H  0.63775588  0.60982542  0.34379804     0.12850
H1089       H  0.49438932  0.41884312  0.34538827     0.12860
C1090       C  0.45260648  0.48293805  0.33946507     0.62390
F1091       F  0.71078614  0.60290854  0.35227677    -0.22780
F1092       F  0.69672235  0.52246636  0.34443586    -0.20110
F1093       F  0.67983134  0.53756953  0.37362137    -0.19790
F1094       F  0.43961885  0.47745213  0.32082366    -0.19840
F1095       F  0.44169556  0.51977076  0.34724870    -0.20160
F1096       F  0.41973563  0.43401516  0.34805003    -0.22830
C1097       C  0.46300037  0.66263095  0.29321713    -0.05670
C1098       C  0.50325824  0.64925820  0.29343548     0.00250
C1099       C  0.52055513  0.63854257  0.27648502    -0.08320
C1100       C  0.49424874  0.63852481  0.25996506    -0.05690
C1101       C  0.45562531  0.65401316  0.25964184     0.00240
C1102       C  0.43916099  0.66556567  0.27653277    -0.08230
C1103       C  0.39657693  0.68095684  0.27676555     0.62150
H1104       H  0.45059772  0.67107053  0.30628542     0.12850
H1105       H  0.50323155  0.62589562  0.24716463     0.12860
C1106       C  0.56815585  0.62989330  0.27568034     0.62390
F1107       F  0.38507852  0.68969853  0.29455466    -0.22780
F1108       F  0.34956707  0.64112264  0.26880283    -0.20110
F1109       F  0.41523568  0.72745316  0.26665028    -0.19790
F1110       F  0.55502195  0.58128868  0.28362240    -0.19840
F1111       F  0.61161665  0.67075939  0.28499854    -0.20160
F1112       F  0.58403455  0.62975730  0.25764926    -0.22830
C1113       C  0.59127646  0.77932542  0.35366839    -0.05670
C1114       C  0.61445357  0.74914344  0.34835905     0.00250
C1115       C  0.67072799  0.77120220  0.35071318    -0.08320
C1116       C  0.70153793  0.82268649  0.35837224    -0.05690
C1117       C  0.67848042  0.85284811  0.36377828     0.00240
C1118       C  0.62209495  0.83073160  0.36154513    -0.08230
C1119       C  0.59380111  0.86020787  0.36752619     0.62150
H1120       H  0.54848082  0.76223963  0.35143652     0.12850
H1121       H  0.74442588  0.83989800  0.36040292     0.12860
C1122       C  0.69882901  0.74110904  0.34530605     0.62390
F1123       F  0.53858707  0.82601729  0.36852390    -0.22780
F1124       F  0.60365986  0.90013201  0.35483177    -0.20110
F1125       F  0.61151595  0.88251544  0.38488182    -0.19790
F1126       F  0.68285245  0.71941247  0.32778603    -0.19840
F1127       F  0.68664699  0.70076631  0.35807755    -0.20160
F1128       F  0.75425656  0.77436796  0.34506517    -0.22830
C1129       C  0.85802716  0.01779692  0.09039612    -0.05670
C1130       C  0.88943741  0.99397690  0.09275677     0.00250
C1131       C  0.89518097  0.97736714  0.11070530    -0.08320
C1132       C  0.86455938  0.97984660  0.12537310    -0.05690
C1133       C  0.83001734  0.99988801  0.12257374     0.00240
C1134       C  0.82678166  0.01957149  0.10491959    -0.08230
C1135       C  0.78965590  0.04138608  0.10145748     0.62150
H1136       H  0.85725970  0.03414623  0.07693161     0.12850
H1137       H  0.86809207  0.96718540  0.13922703     0.12860
C1138       C  0.93773941  0.96297716  0.11460569     0.62390
F1139       F  0.79163669  0.05750551  0.08320332    -0.22780
F1140       F  0.80428256  0.08508402  0.11272811    -0.20110
F1141       F  0.73714353  0.00204645  0.10534655    -0.19790
F1142       F  0.98732598  0.00680137  0.11015731    -0.19840
F1143       F  0.92862464  0.91952686  0.10408160    -0.20160
F1144       F  0.93886534  0.95039195  0.13311068    -0.22830
C1145       C  0.57034694  0.87111994  0.16919373    -0.05670
C1146       C  0.57085234  0.82561394  0.17559582     0.00250
C1147       C  0.61979846  0.82588809  0.17538116    -0.08320
C1148       C  0.66663173  0.87118186  0.16892345    -0.05690
C1149       C  0.66622960  0.91661724  0.16277729     0.00240
C1150       C  0.61744997  0.91709966  0.16275957    -0.08230
C1151       C  0.61473178  0.96485868  0.15539884     0.62150
H1152       H  0.53243107  0.86990371  0.16898645     0.12850
H1153       H  0.70456592  0.87206728  0.16899568     0.12860
C1154       C  0.62290329  0.77956718  0.18295672     0.62390
F1155       F  0.56227860  0.95403533  0.15439406    -0.22780
F1156       F  0.63656203  0.97807433  0.13777317    -0.20110
F1157       F  0.64299975  0.00842791  0.16690640    -0.19790
F1158       F  0.58971452  0.73446702  0.17260496    -0.19840
F1159       F  0.60661407  0.77252972  0.20128228    -0.20160
F1160       F  0.67459675  0.78805350  0.18237284    -0.22830
C1161       C  0.75989901  0.30659629  0.26470115    -0.05670
C1162       C  0.77436402  0.29336216  0.28165425     0.00250
C1163       C  0.81614175  0.28153864  0.28213576    -0.08320
C1164       C  0.84216558  0.28321358  0.26544607    -0.05690
C1165       C  0.82704668  0.29559866  0.24842806     0.00240
C1166       C  0.78473325  0.30679614  0.24793873    -0.08230
C1167       C  0.76487869  0.32043164  0.23037702     0.62150
H1168       H  0.72843745  0.31647754  0.26452763     0.12850
H1169       H  0.87431720  0.27437945  0.26550501     0.12860
C1170       C  0.83335918  0.26795359  0.30027875     0.62390
F1171       F  0.70957675  0.28740297  0.22908935    -0.22780
F1172       F  0.78704627  0.31476217  0.21426840    -0.20110
F1173       F  0.77761356  0.37307469  0.23139166    -0.19790
F1174       F  0.79091277  0.22148987  0.30767134    -0.19840
F1175       F  0.84853587  0.30925562  0.31269360    -0.20160
F1176       F  0.87642924  0.26025609  0.29794919    -0.22830
C1177       C  0.98606160  0.41455853  0.18888208    -0.05670
C1178       C  0.98273541  0.38130153  0.20372287     0.00250
C1179       C  0.03012587  0.38441768  0.21056185    -0.08320
C1180       C  0.07978144  0.42376802  0.20322876    -0.05690
C1181       C  0.08374814  0.46134187  0.19005924     0.00240
C1182       C  0.03607184  0.45373813  0.18145338    -0.08230
C1183       C  0.03506627  0.48188344  0.16377040     0.62150
H1184       H  0.94917295  0.40857813  0.18263329     0.12850
H1185       H  0.11653645  0.42631394  0.20803543     0.12860
C1186       C  0.02807187  0.34600704  0.22543816     0.62390
F1187       F  0.00710197  0.44381581  0.15028280    -0.22780
F1188       F  0.08580906  0.51697324  0.15694370    -0.20110
F1189       F  0.00879533  0.50966855  0.16685524    -0.19790
F1190       F  0.99918788  0.29391102  0.21902277    -0.19840
F1191       F  0.00349195  0.35037040  0.24117122    -0.20160
F1192       F  0.07895432  0.35672402  0.23038937    -0.22830
C1193       C  0.83220171  0.15016223  0.20414171    -0.05670
C1194       C  0.83689111  0.19449560  0.19446435     0.00250
C1195       C  0.82881113  0.19163273  0.17498322    -0.08320
C1196       C  0.81943470  0.14535602  0.16576539    -0.05690
C1197       C  0.81471744  0.10106949  0.17542896     0.00240
C1198       C  0.82167948  0.10338951  0.19495426    -0.08230
C1199       C  0.81964047  0.05871091  0.20672587     0.62150
H1200       H  0.83904542  0.15292381  0.21901137     0.12850
H1201       H  0.81279892  0.14259388  0.15087994     0.12860
C1202       C  0.82807520  0.23515430  0.16333834     0.62390
F1203       F  0.86481482  0.07956664  0.21797253    -0.22780
F1204       F  0.81846016  0.01832188  0.19633678    -0.20110
F1205       F  0.77437897  0.03679984  0.21785341    -0.19790
F1206       F  0.87434204  0.26083319  0.15272962    -0.19840
F1207       F  0.82443893  0.27272399  0.17388898    -0.20160
F1208       F  0.78392953  0.21222823  0.15158762    -0.22830
C1209       C  0.92936443  0.40970859  0.33087700    -0.05670
C1210       C  0.90642391  0.38600996  0.34808194     0.00250
C1211       C  0.93747095  0.37388990  0.36050436    -0.08320
C1212       C  0.99060613  0.38926414  0.35547966    -0.05690
C1213       C  0.01114602  0.40775764  0.33753500     0.00240
C1214       C  0.97826710  0.41605966  0.32468017    -0.08230
C1215       C  0.99000107  0.42612126  0.30399153     0.62150
H1216       H  0.90660714  0.41960873  0.32135887     0.12850
H1217       H  0.01580678  0.38411884  0.36540902     0.12860
C1218       C  0.91511210  0.34249588  0.37851132     0.62390
F1219       F  0.94371558  0.41191926  0.29387792    -0.22780
F1220       F  0.01016705  0.39533662  0.29738240    -0.20110
F1221       F  0.02561824  0.47991924  0.30062291    -0.19790
F1222       F  0.87200457  0.29194908  0.37464717    -0.19840
F1223       F  0.89890412  0.36908932  0.39012408    -0.20160
F1224       F  0.95286347  0.33555499  0.38804998    -0.22830
C1225       C  0.24897915  0.52343507  0.27525511    -0.05670
C1226       C  0.21570731  0.51984605  0.26046740     0.00250
C1227       C  0.16013182  0.49983299  0.26392431    -0.08320
C1228       C  0.13929465  0.47866118  0.28142836    -0.05690
C1229       C  0.17237002  0.48201825  0.29620868     0.00240
C1230       C  0.22885988  0.50911260  0.29339419    -0.08230
C1231       C  0.26979995  0.52910961  0.30891812     0.62150
H1232       H  0.29183948  0.54160767  0.27293274     0.12850
H1233       H  0.09654945  0.45952502  0.28369731     0.12860
C1234       C  0.12237849  0.50090191  0.24949558     0.62390
F1235       F  0.30124959  0.50604937  0.30753790    -0.22780
F1236       F  0.24631385  0.51876808  0.32622369    -0.20110
F1237       F  0.30274722  0.58412356  0.30723359    -0.19790
F1238       F  0.13123912  0.48445172  0.23285237    -0.19840
F1239       F  0.13167143  0.55243046  0.24765363    -0.20160
F1240       F  0.06871277  0.46721658  0.25403745    -0.22830
C1241       C  0.15930860  0.16601754  0.44977638    -0.05670
C1242       C  0.11026931  0.11739740  0.44888521     0.00250
C1243       C  0.08607306  0.09614113  0.43155678    -0.08320
C1244       C  0.11455354  0.12199972  0.41539718    -0.05690
C1245       C  0.16445105  0.16977481  0.41626090     0.00240
C1246       C  0.18624573  0.19383439  0.43360442    -0.08230
C1247       C  0.23623289  0.24925295  0.43499395     0.62150
H1248       H  0.17617050  0.18229774  0.46318217     0.12850
H1249       H  0.09755169  0.10592767  0.40189029     0.12860
C1250       C  0.02932093  0.04829306  0.43020109     0.62390
F1251       F  0.24653393  0.26746467  0.45310648    -0.22780
F1252       F  0.22925786  0.28539030  0.42448781    -0.20110
F1253       F  0.28058100  0.24817858  0.42858526    -0.19790
F1254       F  0.99381970  0.06229108  0.43720500    -0.19840
F1255       F  0.02440586  0.00532567  0.44027516    -0.20160
F1256       F  0.01503476  0.03215335  0.41202269    -0.22830
C1257       C  0.41242418  0.28345318  0.36852372    -0.05670
C1258       C  0.41430985  0.23844201  0.36275788     0.00250
C1259       C  0.36620883  0.18835079  0.36129129    -0.08320
C1260       C  0.31705901  0.18462427  0.36562997    -0.05690
C1261       C  0.31513245  0.22961328  0.37134815     0.00240
C1262       C  0.36344719  0.27986204  0.37305893    -0.08230
C1263       C  0.36339944  0.32909677  0.37999262     0.62150
H1264       H  0.44991803  0.32144041  0.36964472     0.12850
H1265       H  0.27964538  0.14656639  0.36457741     0.12860
C1266       C  0.36717200  0.14003642  0.35436834     0.62390
F1267       F  0.41509547  0.37236511  0.38225564    -0.22780
F1268       F  0.33763023  0.31809001  0.39694648    -0.20110
F1269       F  0.33696587  0.34377403  0.36741771    -0.19790
F1270       F  0.39528120  0.12666001  0.36671852    -0.19840
F1271       F  0.39233447  0.15260785  0.33728440    -0.20160
F1272       F  0.31584135  0.09599945  0.35236825    -0.22830
C1273       C  0.10354562  0.28526883  0.34446708    -0.05670
C1274       C  0.14118185  0.34048122  0.34270645     0.00250
C1275       C  0.19355514  0.36127386  0.35036340    -0.08320
C1276       C  0.20726665  0.32578348  0.35824179    -0.05690
C1277       C  0.17029446  0.27093845  0.35980206     0.00240
C1278       C  0.11705066  0.24987679  0.35305914    -0.08230
C1279       C  0.07338248  0.19147544  0.35551789     0.62150
H1280       H  0.06313328  0.26986072  0.33916465     0.12850
H1281       H  0.24726820  0.34118161  0.36388688     0.12860
C1282       C  0.23556405  0.42056429  0.35081526     0.62390
F1283       F  0.03596663  0.17532635  0.34129539    -0.22780
F1284       F  0.04715489  0.18537669  0.37214460    -0.20110
F1285       F  0.09436075  0.15802993  0.35545035    -0.19790
F1286       F  0.21215995  0.45056011  0.35488303    -0.19840
F1287       F  0.26108335  0.43559198  0.33388713    -0.20160
F1288       F  0.27451839  0.43202326  0.36419593    -0.22830
C1289       C  0.71188676  0.87152915  0.01303319    -0.05670
C1290       C  0.74914693  0.88717608  0.02768632     0.00250
C1291       C  0.73254144  0.89180452  0.04576308    -0.08320
C1292       C  0.68004627  0.88118709  0.04849165    -0.05690
C1293       C  0.64261344  0.86522769  0.03401204     0.00240
C1294       C  0.65820231  0.85874674  0.01597926    -0.08230
C1295       C  0.61969449  0.83834757  0.99962936     0.62150
H1296       H  0.72461868  0.86833561  0.99922997     0.12850
H1297       H  0.66810120  0.88678363  0.06210393     0.12860
C1298       C  0.77126191  0.91215365  0.06197375     0.62390
F1299       F  0.63024613  0.80602340  0.98857176    -0.22780
F1300       F  0.62639033  0.88143343  0.98913757    -0.20110
F1301       F  0.56661051  0.80800526  0.00523273    -0.19790
F1302       F  0.81726140  0.95850098  0.05649416    -0.19840
F1303       F  0.78357426  0.87387946  0.06744958    -0.20160
F1304       F  0.75029500  0.92399799  0.07719567    -0.22830
C1305       C  0.43182817  0.73065284  0.09790093    -0.05670
C1306       C  0.43333935  0.76443631  0.11202608     0.00250
C1307       C  0.46183935  0.82058899  0.10924812    -0.08320
C1308       C  0.49026541  0.84126256  0.09257785    -0.05690
C1309       C  0.48936503  0.80748361  0.07852685     0.00240
C1310       C  0.45845735  0.75118039  0.08093580    -0.08230
C1311       C  0.45217867  0.71295525  0.06554225     0.62150
H1312       H  0.40948972  0.68771669  0.10033140     0.12850
H1313       H  0.51296415  0.88420450  0.09021386     0.12860
C1314       C  0.46278838  0.85833166  0.12386739     0.62390
F1315       F  0.41472694  0.66025703  0.07003602    -0.22780
F1316       F  0.50075912  0.71611295  0.06230871    -0.20110
F1317       F  0.43505497  0.72606050  0.04944547    -0.19790
F1318       F  0.48000535  0.84870543  0.14055677    -0.19840
F1319       F  0.41162677  0.85015062  0.12602831    -0.20160
F1320       F  0.49702214  0.91160670  0.11911063    -0.22830
C1321       C  0.56776273  0.16142407  0.96441849    -0.05670
C1322       C  0.51154369  0.13692890  0.96610573     0.00250
C1323       C  0.48101801  0.13215493  0.95007940    -0.08320
C1324       C  0.50864722  0.16045699  0.93405775    -0.05690
C1325       C  0.56391687  0.18112832  0.93162956     0.00240
C1326       C  0.59394781  0.18036707  0.94715676    -0.08230
C1327       C  0.65192641  0.19570667  0.94539017     0.62150
H1328       H  0.59056451  0.16246424  0.97654672     0.12850
H1329       H  0.48648983  0.16412148  0.92280696     0.12860
C1330       C  0.42054225  0.09364805  0.94822578     0.62390
F1331       F  0.67535833  0.19772857  0.96241023    -0.22780
F1332       F  0.68152825  0.24537353  0.93697736    -0.20110
F1333       F  0.65310867  0.15691694  0.93486166    -0.19790
F1334       F  0.39520618  0.12225572  0.94453138    -0.19840
F1335       F  0.39675236  0.06122702  0.96346579    -0.20160
F1336       F  0.41133295  0.05900403  0.93380435    -0.22830
C1337       C  0.33200861  0.08565409  0.99597595    -0.05670
C1338       C  0.36065387  0.08087548  0.01097044     0.00250
C1339       C  0.33550452  0.06788556  0.02869689    -0.08320
C1340       C  0.28103696  0.05388643  0.03011540    -0.05690
C1341       C  0.25177589  0.05684714  0.01488545     0.00240
C1342       C  0.27900977  0.07527101  0.99751172    -0.08230
C1343       C  0.25282269  0.08248697  0.98017212     0.62150
H1344       H  0.35091307  0.09602479  0.98254189     0.12850
H1345       H  0.26153541  0.04170881  0.04353252     0.12860
C1346       C  0.36433738  0.06992434  0.04661505     0.62390
F1347       F  0.28628284  0.09810878  0.96484132    -0.22780
F1348       F  0.24022874  0.12187095  0.98310009    -0.20110
F1349       F  0.20694839  0.03459611  0.97581038    -0.19790
F1350       F  0.41968494  0.09770481  0.04468398    -0.19840
F1351       F  0.34705714  0.01826538  0.05266959    -0.20160
F1352       F  0.35228662  0.09585928  0.06008995    -0.22830
C1353       C  0.44432554  0.94908502  0.01493417    -0.05670
C1354       C  0.48331494  0.00386613  0.01445319     0.00250
C1355       C  0.53677799  0.02133406  0.02036256    -0.08320
C1356       C  0.54943100  0.98276281  0.02607324    -0.05690
C1357       C  0.51063218  0.92797459  0.02642125     0.00240
C1358       C  0.45715046  0.91047268  0.02058336    -0.08230
C1359       C  0.41275546  0.85180485  0.02038458     0.62150
H1360       H  0.40369268  0.93640030  0.01044944     0.12850
H1361       H  0.58985425  0.99539003  0.03078252     0.12860
C1362       C  0.58068744  0.08028489  0.02106104     0.62390
F1363       F  0.37661681  0.84233579  0.00616013    -0.22780
F1364       F  0.38518472  0.83877978  0.03702150    -0.20110
F1365       F  0.43305239  0.81834264  0.01765992    -0.19790
F1366       F  0.56013870  0.11136415  0.02709784    -0.19840
F1367       F  0.60305272  0.09756790  0.00366199    -0.20160
F1368       F  0.62154521  0.08846520  0.03316841    -0.22830
C1369       C  0.51749701  0.65572878  0.59408287    -0.05670
C1370       C  0.48903383  0.61525129  0.58101311     0.00250
C1371       C  0.43529196  0.57474221  0.58530981    -0.08320
C1372       C  0.41437901  0.57441858  0.60301314    -0.05690
C1373       C  0.44253145  0.61610328  0.61582858     0.00240
C1374       C  0.49590609  0.65747598  0.61124248    -0.08230
C1375       C  0.53223519  0.70213137  0.62458317     0.62150
H1376       H  0.55809647  0.68619151  0.59094465     0.12850
H1377       H  0.37462562  0.54200198  0.60651216     0.12860
C1378       C  0.39723627  0.53287193  0.57158983     0.62390
F1379       F  0.58526779  0.73048631  0.61869324    -0.22780
F1380       F  0.53169542  0.68017190  0.64170191    -0.20110
F1381       F  0.51506027  0.73850804  0.62618745    -0.19790
F1382       F  0.38970309  0.48334647  0.57654019    -0.19840
F1383       F  0.41571482  0.54483451  0.55353614    -0.20160
F1384       F  0.34794201  0.52995376  0.57197777    -0.22830
C1385       C  0.72667765  0.80701973  0.54215508    -0.05670
C1386       C  0.74935253  0.80500916  0.52516593     0.00250
C1387       C  0.71710507  0.76137936  0.51312711    -0.08320
C1388       C  0.66631313  0.71974489  0.51945776    -0.05690
C1389       C  0.64661171  0.71888975  0.53743607     0.00240
C1390       C  0.67671571  0.76540760  0.54863573    -0.08230
C1391       C  0.65875202  0.77225832  0.56766067     0.62150
H1392       H  0.74945370  0.84150856  0.55092931     0.12850
H1393       H  0.64222167  0.68585744  0.51052821     0.12860
C1394       C  0.73546440  0.75771302  0.49377046     0.62390
F1395       F  0.69948375  0.81504699  0.57729023    -0.22780
F1396       F  0.64313547  0.72698704  0.57822420    -0.20110
F1397       F  0.61698609  0.78212162  0.56583394    -0.19790
F1398       F  0.77832278  0.74926251  0.49489270    -0.19840
F1399       F  0.75062585  0.80459918  0.48402757    -0.20160
F1400       F  0.69496926  0.71577007  0.48377880    -0.22830
C1401       C  0.29465448  0.13557094  0.51739735    -0.05670
C1402       C  0.25259231  0.14648422  0.51606180     0.00250
C1403       C  0.26521951  0.19880500  0.51094111    -0.08320
C1404       C  0.31864941  0.23896815  0.50789436    -0.05690
C1405       C  0.36053749  0.22870940  0.50937003     0.00240
C1406       C  0.34897014  0.17627032  0.51414440    -0.08230
C1407       C  0.39387818  0.16405304  0.51611248     0.62150
H1408       H  0.28467767  0.09516697  0.52091060     0.12850
H1409       H  0.32829060  0.27901653  0.50391457     0.12860
C1410       C  0.22195574  0.21230457  0.50901102     0.62390
F1411       F  0.37491113  0.11226136  0.52228989    -0.22780
F1412       F  0.43161243  0.19886000  0.52872711    -0.20110
F1413       F  0.41854685  0.16980353  0.49920484    -0.19790
F1414       F  0.19753661  0.20330566  0.52595341    -0.19840
F1415       F  0.18466088  0.17976035  0.49596934    -0.20160
F1416       F  0.24195720  0.26529868  0.50386426    -0.22830
C1417       C  0.54852133  0.30972128  0.46162590    -0.05670
C1418       C  0.50497373  0.31795623  0.46229687     0.00250
C1419       C  0.48295827  0.32513924  0.44560716    -0.08320
C1420       C  0.50832701  0.32775114  0.42872765    -0.05690
C1421       C  0.55194878  0.31964587  0.42814786     0.00240
C1422       C  0.57107391  0.30831947  0.44465113    -0.08230
C1423       C  0.61090164  0.28922749  0.44417721     0.62150
H1424       H  0.56308344  0.30192604  0.47447080     0.12850
H1425       H  0.49316815  0.33414281  0.41576829     0.12860
C1426       C  0.43255686  0.32898202  0.44552781     0.62390
F1427       F  0.63421489  0.29320103  0.46137559    -0.22780
F1428       F  0.65133107  0.31913342  0.43162027    -0.20110
F1429       F  0.58418584  0.23615416  0.43881605    -0.19790
F1430       F  0.44071618  0.37162425  0.45622251    -0.19840
F1431       F  0.38971621  0.28223375  0.45258615    -0.20160
F1432       F  0.41878346  0.33657795  0.42780798    -0.22830
C1433       C  0.53624604  0.51578493  0.51849377    -0.05670
C1434       C  0.54503899  0.51773832  0.53768176     0.00250
C1435       C  0.53582269  0.47061267  0.54710637    -0.08320
C1436       C  0.51688612  0.42298942  0.53687133    -0.05690
C1437       C  0.50742028  0.42094182  0.51763108     0.00240
C1438       C  0.51631959  0.46831393  0.50831720    -0.08230
C1439       C  0.50010731  0.46867654  0.48821213     0.62150
H1440       H  0.54248502  0.55182241  0.51158585     0.12850
H1441       H  0.50938069  0.38677945  0.54401952     0.12860
C1442       C  0.54493656  0.46810204  0.56775595     0.62390
F1443       F  0.49990324  0.51507708  0.48372867    -0.22780
F1444       F  0.44859856  0.42607924  0.48532380    -0.20110
F1445       F  0.53565161  0.46566761  0.47629328    -0.19790
F1446       F  0.49563511  0.44004244  0.57657218    -0.19840
F1447       F  0.57466198  0.51824765  0.57566844    -0.20160
F1448       F  0.57272523  0.44154523  0.57076292    -0.22830
C1449       C  0.82559858  0.50630069  0.76133371    -0.05670
C1450       C  0.81911416  0.47526202  0.74574071     0.00250
C1451       C  0.78295265  0.41937568  0.74637594    -0.08320
C1452       C  0.75867092  0.39534616  0.76346261    -0.05690
C1453       C  0.76699665  0.42624739  0.77944948     0.00240
C1454       C  0.79947238  0.48310037  0.77813317    -0.08230
C1455       C  0.80888445  0.52183355  0.79365744     0.62150
H1456       H  0.85171733  0.54951013  0.76036006     0.12850
H1457       H  0.73264302  0.35218966  0.76443154     0.12860
C1458       C  0.76924414  0.38617691  0.72890037     0.62390
F1459       F  0.86360615  0.55452012  0.79673380    -0.22780
F1460       F  0.78812052  0.55364955  0.78843263    -0.20110
F1461       F  0.78531152  0.49662342  0.81012090    -0.19790
F1462       F  0.81430037  0.38608491  0.72263076    -0.19840
F1463       F  0.75187327  0.40777519  0.71528530    -0.20160
F1464       F  0.72850541  0.33379713  0.73190332    -0.22830
C1465       C  0.99059550  0.52424784  0.69064655    -0.05670
C1466       C  0.98442147  0.54825564  0.70646195     0.00250
C1467       C  0.03003979  0.58355529  0.71706632    -0.08320
C1468       C  0.07950699  0.58768502  0.71298779    -0.05690
C1469       C  0.08577004  0.56265995  0.69737903     0.00240
C1470       C  0.04115596  0.53293203  0.68532023    -0.08230
C1471       C  0.04366205  0.51097587  0.66655130     0.62150
H1472       H  0.95576229  0.50018626  0.68192395     0.12850
H1473       H  0.11458233  0.61301262  0.72140570     0.12860
C1474       C  0.02697854  0.61964207  0.73154225     0.62390
F1475       F  0.00877643  0.45608638  0.66635086    -0.22780
F1476       F  0.09423434  0.52128494  0.66192543    -0.20110
F1477       F  0.02756179  0.53398941  0.65303094    -0.19790
F1478       F  0.99150319  0.58910567  0.74545419    -0.19840
F1479       F  0.00914451  0.65095961  0.72327959    -0.20160
F1480       F  0.07673382  0.65380846  0.73944349    -0.22830
C1481       C  0.64374337  0.67833628  0.68155297    -0.05670
C1482       C  0.68080474  0.72517612  0.67189521     0.00250
C1483       C  0.66684012  0.76496066  0.66872679    -0.08320
C1484       C  0.61355205  0.75182356  0.67209924    -0.05690
C1485       C  0.57723213  0.70586836  0.68229947     0.00240
C1486       C  0.59475697  0.67039089  0.68833697    -0.08230
C1487       C  0.56265236  0.62379348  0.70162824     0.62150
H1488       H  0.65286419  0.64697710  0.68374533     0.12850
H1489       H  0.60124614  0.77919153  0.66722882     0.12860
C1490       C  0.70657755  0.82251133  0.66308445     0.62390
F1491       F  0.58760005  0.59467313  0.70520307    -0.22780
F1492       F  0.51275210  0.58924250  0.69422436    -0.20110
F1493       F  0.55690053  0.64301783  0.71842091    -0.19790
F1494       F  0.69864284  0.83035958  0.64466392    -0.19840
F1495       F  0.75946066  0.83614398  0.66581392    -0.20160
F1496       F  0.69829358  0.85700942  0.67380881    -0.22830
C1497       C  0.87951484  0.80623380  0.62158301    -0.05670
C1498       C  0.82296215  0.77573500  0.62197474     0.00250
C1499       C  0.79403907  0.77101356  0.60542487    -0.08320
C1500       C  0.82230147  0.80275151  0.58993801    -0.05690
C1501       C  0.87873243  0.83294171  0.58964759     0.00240
C1502       C  0.90789932  0.83217650  0.60539465    -0.08230
C1503       C  0.96869537  0.85906615  0.60524168     0.62150
H1504       H  0.90165268  0.80912878  0.63411288     0.12850
H1505       H  0.80028864  0.80223719  0.57762540     0.12860
C1506       C  0.73437456  0.73138571  0.60326266     0.62390
F1507       F  0.98954776  0.85949161  0.62262587    -0.22780
F1508       F  0.99061412  0.91127793  0.59928294    -0.20110
F1509       F  0.98391037  0.83205442  0.59334201    -0.19790
F1510       F  0.70601973  0.75656543  0.60724797    -0.19840
F1511       F  0.71712813  0.68718660  0.61475049    -0.20160
F1512       F  0.72320560  0.71253302  0.58524398    -0.22830
C1513       C  0.84696994  0.64029906  0.70420153    -0.05670
C1514       C  0.84875099  0.60060159  0.69384459     0.00250
C1515       C  0.83532217  0.59465758  0.67477356    -0.08320
C1516       C  0.81908279  0.62841631  0.66681132    -0.05690
C1517       C  0.81772002  0.66869763  0.67709830     0.00240
C1518       C  0.83342882  0.67587492  0.69604968    -0.08230
C1519       C  0.83650068  0.72001226  0.70814238     0.62150
H1520       H  0.85743149  0.64408641  0.71881115     0.12850
H1521       H  0.80676851  0.62327610  0.65239285     0.12860
C1522       C  0.83687461  0.55227613  0.66296877     0.62390
F1523       F  0.87873117  0.73761097  0.72062228    -0.22780
F1524       F  0.78917004  0.70016265  0.71804667    -0.20110
F1525       F  0.84519709  0.76412266  0.69782744    -0.19790
F1526       F  0.80783317  0.50255268  0.67145041    -0.19840
F1527       F  0.88948854  0.56488928  0.66062596    -0.20160
F1528       F  0.81504435  0.54874042  0.64551851    -0.22830
C1529       C  0.34234225  0.04821964  0.87827399    -0.05670
C1530       C  0.30326344  0.03958886  0.86524049     0.00250
C1531       C  0.31865324  0.07112060  0.84880569    -0.08320
C1532       C  0.37352401  0.11167235  0.84640770    -0.05690
C1533       C  0.41266955  0.12150770  0.86004908     0.00240
C1534       C  0.39642135  0.08774816  0.87594993    -0.08230
C1535       C  0.43155385  0.09354649  0.89216453     0.62150
H1536       H  0.33009015  0.02358758  0.89076156     0.12850
H1537       H  0.38598464  0.13668484  0.83407510     0.12860
C1538       C  0.27709836  0.06266697  0.83425546     0.62390
F1539       F  0.41378375  0.11212254  0.90630884    -0.22780
F1540       F  0.48567908  0.12797679  0.88932190    -0.20110
F1541       F  0.42457360  0.04409213  0.89700151    -0.19790
F1542       F  0.23704400  0.06857793  0.84222027    -0.19840
F1543       F  0.25454082  0.01164695  0.82701924    -0.20160
F1544       F  0.29949407  0.09918664  0.81979386    -0.22830
C1545       C  0.15250926  0.92729378  0.92509051    -0.05670
C1546       C  0.15042779  0.95849138  0.91041658     0.00250
C1547       C  0.12500424  0.98857775  0.91328758    -0.08320
C1548       C  0.10360941  0.98726867  0.93095930    -0.05690
C1549       C  0.10539036  0.95578107  0.94557936     0.00240
C1550       C  0.13009208  0.92504093  0.94263860    -0.08230
C1551       C  0.13374197  0.89084207  0.95800322     0.62150
H1552       H  0.17185266  0.90434380  0.92261114     0.12850
H1553       H  0.08452570  0.01047579  0.93346768     0.12860
C1554       C  0.11881436  0.02038419  0.89764209     0.62390
F1555       F  0.16435841  0.86887902  0.95277673    -0.22780
F1556       F  0.08279137  0.84915393  0.96242369    -0.20110
F1557       F  0.15725760  0.92166701  0.97360790    -0.19790
F1558       F  0.09415722  0.98731590  0.88259697    -0.19840
F1559       F  0.16869740  0.06226734  0.89235850    -0.20160
F1560       F  0.08770004  0.04180792  0.90287096    -0.22830
C1561       C  0.94874006  0.48573325  0.86176522    -0.05670
C1562       C  0.91383184  0.46428875  0.84641322     0.00250
C1563       C  0.93412213  0.48523447  0.82840992    -0.08320
C1564       C  0.98669428  0.52900779  0.82668579    -0.05690
C1565       C  0.02118489  0.55091413  0.84191954     0.00240
C1566       C  0.00281071  0.52792229  0.85974161    -0.08230
C1567       C  0.04055308  0.54645701  0.87631227     0.62150
H1568       H  0.93340079  0.46890360  0.87537348     0.12850
H1569       H  0.00132299  0.54728856  0.81324476     0.12860
C1570       C  0.90032904  0.46326792  0.81097364     0.62390
F1571       F  0.01664684  0.51433600  0.89174747    -0.22780
F1572       F  0.05560623  0.59843782  0.88085011    -0.20110
F1573       F  0.08603870  0.54432693  0.87209238    -0.19790
F1574       F  0.85257227  0.46207907  0.81330076    -0.19840
F1575       F  0.89017112  0.41206463  0.80760906    -0.20160
F1576       F  0.92545451  0.49435339  0.79543012    -0.22830
C1577       C  0.23360833  0.66694465  0.79824988    -0.05670
C1578       C  0.17702862  0.64050668  0.79905376     0.00250
C1579       C  0.14681576  0.61897443  0.78243867    -0.08320
C1580       C  0.17445155  0.62525063  0.76577856    -0.05690
C1581       C  0.23064422  0.65186508  0.76496157     0.00240
C1582       C  0.26104080  0.67245630  0.78146452    -0.08230
C1583       C  0.32179578  0.69838652  0.78141731     0.62150
H1584       H  0.25619443  0.68346196  0.81094194     0.12850
H1585       H  0.15213350  0.60859164  0.75304836     0.12860
C1586       C  0.08569323  0.59008796  0.78185212     0.62390
F1587       F  0.34323635  0.71156132  0.79913141    -0.22780
F1588       F  0.34448763  0.74484886  0.77086964    -0.20110
F1589       F  0.33565197  0.66331986  0.77399326    -0.19790
F1590       F  0.06780107  0.62104600  0.79006774    -0.19840
F1591       F  0.06405140  0.54109871  0.79073205    -0.20160
F1592       F  0.06629811  0.57962775  0.76390496    -0.22830
C1593       C  0.15204097  0.75683958  0.86426519    -0.05670
C1594       C  0.14509636  0.74939832  0.84502313     0.00250
C1595       C  0.14727929  0.79078232  0.83370402    -0.08320
C1596       C  0.15708582  0.83846930  0.84220685    -0.05690
C1597       C  0.16462660  0.84618492  0.86144288     0.00240
C1598       C  0.16226100  0.80462471  0.87276998    -0.08230
C1599       C  0.17160413  0.81025708  0.89364936     0.62150
H1600       H  0.14947104  0.72445082  0.87265206     0.12850
H1601       H  0.16004466  0.87095156  0.83377258     0.12860
C1602       C  0.13947224  0.78551412  0.81278305     0.62390
F1603       F  0.17887896  0.77007499  0.90091949    -0.22780
F1604       F  0.12752321  0.80676868  0.90238460    -0.20110
F1605       F  0.21716538  0.85881167  0.89778268    -0.19790
F1606       F  0.09623175  0.73572574  0.80824259    -0.19840
F1607       F  0.18550880  0.79241947  0.80443599    -0.20160
F1608       F  0.12946929  0.82391001  0.80552359    -0.22830
C1609       C  0.48403135  0.13254093  0.28495588    -0.05670
C1610       C  0.52134478  0.18770064  0.28369680     0.00250
C1611       C  0.53122565  0.21422985  0.26638113    -0.08320
C1612       C  0.50390136  0.18403185  0.25067139    -0.05690
C1613       C  0.46596302  0.12877401  0.25180108     0.00240
C1614       C  0.45504857  0.10248640  0.26932809    -0.08230
C1615       C  0.41198747  0.04387171  0.27189442     0.62150
H1616       H  0.47761679  0.11322666  0.29840437     0.12850
H1617       H  0.51154718  0.20362193  0.23724496     0.12860
C1618       C  0.57103941  0.27399782  0.26447481     0.62390
F1619       F  0.40119005  0.03062879  0.29044564    -0.22780
F1620       F  0.42882896  0.01115220  0.26454575    -0.20110
F1621       F  0.36460331  0.03346147  0.26338114    -0.19790
F1622       F  0.62110972  0.28570426  0.27083400    -0.19840
F1623       F  0.55358350  0.30225557  0.27472096    -0.20160
F1624       F  0.57640817  0.29125032  0.24623268    -0.22830
C1625       C  0.45069415  0.97771052  0.20598776    -0.05670
C1626       C  0.40759800  0.98599418  0.20220321     0.00250
C1627       C  0.36079298  0.94379501  0.19333151    -0.08320
C1628       C  0.36016039  0.89657574  0.18852208    -0.05690
C1629       C  0.40121411  0.88682914  0.19372302     0.00240
C1630       C  0.44726377  0.92810597  0.20298493    -0.08230
C1631       C  0.49213580  0.92024082  0.21032598     0.62150
H1632       H  0.48680048  0.01002589  0.21218857     0.12850
H1633       H  0.32526594  0.86502398  0.18145147     0.12860
C1634       C  0.30956452  0.94509118  0.18958301     0.62390
F1635       F  0.53594107  0.96772167  0.21648262    -0.22780
F1636       F  0.50990305  0.90054639  0.19652273    -0.20110
F1637       F  0.47348043  0.88471681  0.22513901    -0.19790
F1638       F  0.31499172  0.97390458  0.17356183    -0.19840
F1639       F  0.29723144  0.96661291  0.20442494    -0.20160
F1640       F  0.26596580  0.89408819  0.18698800    -0.22830
C1641       C  0.16989657  0.14777133  0.08932261    -0.05670
C1642       C  0.13821996  0.09170915  0.09037756     0.00250
C1643       C  0.13313586  0.06532508  0.10744238    -0.08320
C1644       C  0.15679452  0.09640525  0.12332206    -0.05690
C1645       C  0.18893033  0.15257540  0.12238665     0.00240
C1646       C  0.19751765  0.17880337  0.10490639    -0.08230
C1647       C  0.23743466  0.23837389  0.10227129     0.62150
H1648       H  0.17353395  0.16704762  0.07602302     0.12850
H1649       H  0.15211751  0.07682567  0.13661823     0.12860
C1650       C  0.10568729  0.00483154  0.10873836     0.62390
F1651       F  0.24828214  0.25190300  0.08367701    -0.22780
F1652       F  0.28561753  0.25221514  0.11093513    -0.20110
F1653       F  0.21700933  0.26819718  0.10952062    -0.19790
F1654       F  0.13696095  0.98890027  0.09954371    -0.19840
F1655       F  0.05529681  0.98048370  0.10066966    -0.20160
F1656       F  0.09953946  0.98740875  0.12698065    -0.22830
C1657       C  0.29956513  0.39750015  0.17269979    -0.05670
C1658       C  0.25435045  0.39792828  0.17920030     0.00250
C1659       C  0.20386473  0.34981312  0.17998086    -0.08320
C1660       C  0.20087118  0.30162839  0.17473963    -0.05690
C1661       C  0.24658887  0.30128570  0.16841800     0.00240
C1662       C  0.29642259  0.35016356  0.16683086    -0.08230
C1663       C  0.34599048  0.35293062  0.15855736     0.62150
H1664       H  0.33750296  0.43520157  0.17186322     0.12850
H1665       H  0.16296037  0.26395904  0.17548244     0.12860
C1666       C  0.15419892  0.34968857  0.18662079     0.62390
F1667       F  0.38568563  0.40514456  0.15457628    -0.22780
F1668       F  0.33290602  0.32451238  0.14216034    -0.20110
F1669       F  0.36691780  0.33186517  0.17099082    -0.19790
F1670       F  0.14312841  0.38081157  0.17489319    -0.19840
F1671       F  0.16318759  0.37043943  0.20434186    -0.20160
F1672       F  0.10943590  0.29846916  0.18705106    -0.22830
C1673       C  0.28218756  0.13989649  0.19280787    -0.05670
C1674       C  0.30460615  0.16816384  0.17628681     0.00250
C1675       C  0.35535483  0.17780619  0.17027461    -0.08320
C1676       C  0.38172000  0.15747902  0.18102217    -0.05690
C1677       C  0.35905151  0.12869549  0.19746754     0.00240
C1678       C  0.30853421  0.11970452  0.20360212    -0.08230
C1679       C  0.28192116  0.08815414  0.22121365     0.62150
H1680       H  0.24354234  0.13363960  0.19712411     0.12850
H1681       H  0.42025230  0.16359026  0.17663923     0.12860
C1682       C  0.38181005  0.20996355  0.15278493     0.62390
F1683       F  0.23030138  0.07902866  0.22327970    -0.22780
F1684       F  0.31154905  0.11619826  0.23654730    -0.20110
F1685       F  0.27847435  0.03891879  0.22077499    -0.19790
F1686       F  0.38592900  0.25945150  0.15373852    -0.19840
F1687       F  0.35153488  0.18298667  0.13741316    -0.20160
F1688       F  0.43308885  0.21844692  0.15042018    -0.22830
C1689       C  0.44440516  0.96863819  0.33963924    -0.05670
C1690       C  0.39571844  0.96503987  0.33454872     0.00250
C1691       C  0.39154294  0.01145642  0.33442809    -0.08320
C1692       C  0.43603904  0.06003574  0.34030801    -0.05690
C1693       C  0.48451102  0.06377183  0.34571562     0.00240
C1694       C  0.48947894  0.01773011  0.34506674    -0.08230
C1695       C  0.54175321  0.02037992  0.35023887     0.62150
H1696       H  0.44680240  0.93261158  0.33920822     0.12850
H1697       H  0.43387480  0.09608487  0.34019537     0.12860
C1698       C  0.34060818  0.01007389  0.32804996     0.62390
F1699       F  0.53637470  0.97014969  0.35026230    -0.22780
F1700       F  0.55761436  0.04171903  0.36779581    -0.20110
F1701       F  0.58148460  0.05226422  0.33764176    -0.19790
F1702       F  0.30396585  0.99227790  0.34244081    -0.19840
F1703       F  0.31762112  0.97661537  0.31301370    -0.20160
F1704       F  0.35136563  0.06019477  0.32247512    -0.22830
C1705       C  0.26678452  0.79182380  0.27706985    -0.05670
C1706       C  0.31204741  0.81438609  0.28889302     0.00250
C1707       C  0.35798671  0.81198947  0.28368817    -0.08320
C1708       C  0.35754859  0.78979960  0.26647926    -0.05690
C1709       C  0.31087527  0.76248493  0.25547406     0.00240
C1710       C  0.26467255  0.76471040  0.26063869    -0.08230
C1711       C  0.21407730  0.74078356  0.24873976     0.62150
H1712       H  0.23246764  0.79507073  0.28096591     0.12850
H1713       H  0.39449201  0.79325865  0.26177017     0.12860
C1714       C  0.40718684  0.83024091  0.29611160     0.62390
F1715       F  0.17803674  0.75525136  0.25492848    -0.22780
F1716       F  0.18824340  0.68541893  0.24924917    -0.20110
F1717       F  0.22737032  0.75877038  0.23062068    -0.19790
F1718       F  0.39286048  0.82075915  0.31463407    -0.19840
F1719       F  0.44351543  0.88414574  0.29325450    -0.20160
F1720       F  0.43319663  0.80263713  0.29214745    -0.22830
C1721       C  0.05455678  0.85410474  0.41949161    -0.05670
C1722       C  0.01481435  0.79918125  0.41811649     0.00250
C1723       C  0.97911886  0.77460258  0.43338315    -0.08320
C1724       C  0.98112564  0.80719939  0.44808106    -0.05690
C1725       C  0.02099297  0.86181218  0.44935293     0.00240
C1726       C  0.06093456  0.88470599  0.43535741    -0.08230
C1727       C  0.11077100  0.94030597  0.43701959     0.62150
H1728       H  0.08142660  0.87352270  0.40792910     0.12850
H1729       H  0.95184378  0.78918364  0.45915299     0.12860
C1730       C  0.93937358  0.71469283  0.43517022     0.62390
F1731       F  0.14361145  0.95409281  0.42157364    -0.22780
F1732       F  0.14081313  0.94153142  0.45222239    -0.20110
F1733       F  0.09638064  0.97852417  0.43901987    -0.19790
F1734       F  0.95820597  0.68503680  0.42658140    -0.19840
F1735       F  0.89021129  0.70245521  0.42773606    -0.20160
F1736       F  0.93103271  0.69918732  0.45362597    -0.22830
C1737       C  0.92854990  0.61872352  0.36169209    -0.05670
C1738       C  0.91883660  0.65913738  0.36756610     0.00250
C1739       C  0.86508112  0.64823808  0.36753589    -0.08320
C1740       C  0.82309121  0.59541760  0.36396003    -0.05690
C1741       C  0.83304161  0.55531147  0.35793378     0.00240
C1742       C  0.88725501  0.56812444  0.35598988    -0.08230
C1743       C  0.90230690  0.52824722  0.34889275     0.62150
H1744       H  0.96938373  0.62662878  0.36199072     0.12850
H1745       H  0.78205085  0.58585963  0.36544111     0.12860
C1746       C  0.84977328  0.69053078  0.37039461     0.62390
F1747       F  0.95722308  0.54820950  0.34966445    -0.22780
F1748       F  0.88658413  0.51601804  0.33057145    -0.20110
F1749       F  0.87754934  0.48216544  0.35954318    -0.19790
F1750       F  0.89336125  0.74222702  0.36931505    -0.19840
F1751       F  0.82526822  0.68275116  0.38748143    -0.20160
F1752       F  0.81393833  0.68590661  0.35670340    -0.22830
C1753       C  0.12707833  0.82085419  0.34984878    -0.05670
C1754       C  0.11459059  0.78415645  0.36437416     0.00250
C1755       C  0.14791645  0.76267480  0.36813147    -0.08320
C1756       C  0.19477163  0.78086506  0.35749757    -0.05690
C1757       C  0.20746299  0.81801356  0.34303327     0.00240
C1758       C  0.17246189  0.83742946  0.33873627    -0.08230
C1759       C  0.18018869  0.87511078  0.32271264     0.62150
H1760       H  0.10023983  0.83583325  0.34690157     0.12850
H1761       H  0.22202534  0.76645190  0.36041349     0.12860
C1762       C  0.13333620  0.72020366  0.38303400     0.62390
F1763       F  0.13367371  0.85287828  0.31212566    -0.22780
F1764       F  0.22196222  0.88491810  0.31105574    -0.20110
F1765       F  0.18980960  0.92347808  0.32970180    -0.19790
F1766       F  0.08297538  0.67634810  0.37938134    -0.19840
F1767       F  0.13266177  0.74078050  0.40018620    -0.20160
F1768       F  0.16983521  0.70278896  0.38379339    -0.22830
C1769       C  0.22446182  0.22978637  0.02201037    -0.05670
C1770       C  0.17274002  0.21614720  0.02788952     0.00250
C1771       C  0.16724263  0.25357986  0.03899908    -0.08320
C1772       C  0.21283368  0.30427649  0.04215995    -0.05690
C1773       C  0.26494193  0.31667323  0.03732785     0.00240
C1774       C  0.27097591  0.27723253  0.02769896    -0.08230
C1775       C  0.32473091  0.28111029  0.02410147     0.62150
H1776       H  0.22905626  0.20085750  0.01404976     0.12850
H1777       H  0.20810540  0.33435575  0.04917570     0.12860
C1778       C  0.11485377  0.24072280  0.04833785     0.62390
F1779       F  0.31898759  0.23071341  0.02470036    -0.22780
F1780       F  0.36275280  0.31156871  0.03736409    -0.20110
F1781       F  0.34321974  0.30262985  0.00663994    -0.19790
F1782       F  0.10227300  0.20274039  0.06214928    -0.19840
F1783       F  0.07388387  0.22171391  0.03549233    -0.20160
F1784       F  0.11809200  0.28526399  0.05655063    -0.22830
C1785       C  0.31177225  0.51656373  0.09994821    -0.05670
C1786       C  0.35011563  0.52894439  0.11404376     0.00250
C1787       C  0.38884995  0.51306839  0.11201772    -0.08320
C1788       C  0.38725678  0.48487619  0.09595045    -0.05690
C1789       C  0.34875893  0.47241581  0.08192635     0.00240
C1790       C  0.31065407  0.48907453  0.08379711    -0.08230
C1791       C  0.26999287  0.47955002  0.06861408     0.62150
H1792       H  0.28265068  0.52913876  0.10164981     0.12850
H1793       H  0.41650559  0.47253766  0.09409728     0.12860
C1794       C  0.43120463  0.52491703  0.12677298     0.62390
F1795       F  0.24139370  0.50471167  0.07237876    -0.22780
F1796       F  0.23327705  0.42539690  0.06698096    -0.20110
F1797       F  0.29620852  0.49931375  0.05187560    -0.19790
F1798       F  0.40700412  0.50737577  0.14392547    -0.19840
F1799       F  0.46751211  0.57949033  0.12739280    -0.20160
F1800       F  0.45973329  0.49955434  0.12315695    -0.22830
C1801       C  0.61644948  0.43158976  0.92678007    -0.05670
C1802       C  0.65329097  0.41368346  0.92634196     0.00250
C1803       C  0.68834277  0.42430517  0.94172039    -0.08320
C1804       C  0.68449060  0.45185061  0.95708373    -0.05690
C1805       C  0.64779316  0.46984328  0.95747667     0.00240
C1806       C  0.61382490  0.46062831  0.94192714    -0.08230
C1807       C  0.57715414  0.48380745  0.94080237     0.62150
H1808       H  0.59058294  0.42388293  0.91484684     0.12850
H1809       H  0.71044450  0.45984891  0.96901281     0.12860
C1810       C  0.72920076  0.40613455  0.94216161     0.62390
F1811       F  0.55596762  0.47901514  0.92316359    -0.22780
F1812       F  0.60585338  0.53775310  0.94515913    -0.20110
F1813       F  0.53467949  0.45725537  0.95298430    -0.19790
F1814       F  0.76993998  0.43602524  0.92962452    -0.19840
F1815       F  0.70442694  0.35240051  0.93768732    -0.20160
F1816       F  0.75248395  0.41266281  0.95951913    -0.22830
C1817       C  0.78970564  0.63451597  0.00019574    -0.05670
C1818       C  0.73743047  0.62564521  0.00214173     0.00250
C1819       C  0.73105009  0.66707116  0.00993149    -0.08320
C1820       C  0.77644593  0.71275956  0.01713600    -0.05690
C1821       C  0.82883027  0.72292388  0.01431692     0.00240
C1822       C  0.83573279  0.68342982  0.00521719    -0.08230
C1823       C  0.89074073  0.69291475  0.99987044     0.62150
H1824       H  0.79441696  0.60319687  0.99410911     0.12850
H1825       H  0.77121786  0.74361725  0.02342014     0.12860
C1826       C  0.67853321  0.66742437  0.00970978     0.62390
F1827       F  0.88858576  0.64566212  0.99520444    -0.22780
F1828       F  0.92645369  0.71540893  0.01441813    -0.20110
F1829       F  0.90998543  0.72691157  0.98465772    -0.19790
F1830       F  0.65390369  0.65122096  0.02684924    -0.19840
F1831       F  0.64362863  0.63488916  0.99602708    -0.20160
F1832       F  0.68865131  0.71874934  0.00614908    -0.22830
C1833       C  0.51680993  0.50437187  0.00343177    -0.05670
C1834       C  0.54771205  0.48411553  0.01105797     0.00250
C1835       C  0.53111650  0.45337760  0.02754755    -0.08320
C1836       C  0.48325903  0.44363075  0.03596821    -0.05690
C1837       C  0.45226781  0.46375626  0.02832801     0.00240
C1838       C  0.46888255  0.49455177  0.01184610    -0.08230
C1839       C  0.43643448  0.51723911  0.00343830     0.62150
H1840       H  0.53095346  0.52840747  0.99087962     0.12850
H1841       H  0.46905670  0.41945427  0.04848811     0.12860
C1842       C  0.56345677  0.43054404  0.03594020     0.62390
F1843       F  0.46107361  0.54818686  0.98783171    -0.22780
F1844       F  0.43082170  0.54910387  0.01631478    -0.20110
F1845       F  0.38600861  0.47591256  0.99834041    -0.19790
F1846       F  0.61405614  0.47178914  0.04091973    -0.19840
F1847       F  0.56864141  0.39833532  0.02309802    -0.20160
F1848       F  0.53897736  0.39989488  0.05161713    -0.22830
C1849       C  0.13237023  0.50896691  0.61841381    -0.05670
C1850       C  0.18049311  0.50867263  0.62113630     0.00250
C1851       C  0.19334332  0.47928178  0.60851875    -0.08320
C1852       C  0.15826441  0.45274795  0.59369601    -0.05690
C1853       C  0.10998098  0.45240114  0.59119759     0.00240
C1854       C  0.09575982  0.47959563  0.60415049    -0.08230
C1855       C  0.04247135  0.47807763  0.60397443     0.62150
H1856       H  0.12221941  0.53119606  0.62788514     0.12850
H1857       H  0.16893897  0.43248342  0.58354570     0.12860
C1858       C  0.24490116  0.47756658  0.60983633     0.62390
F1859       F  0.02153550  0.46827173  0.62173848    -0.22780
F1860       F  0.00423825  0.43821681  0.59277010    -0.20110
F1861       F  0.05091331  0.52720755  0.59800126    -0.19790
F1862       F  0.24375556  0.44887207  0.62543564    -0.19840
F1863       F  0.28814821  0.52937988  0.61065942    -0.20160
F1864       F  0.25230007  0.45313596  0.59464880    -0.22830
C1865       C  0.09588869  0.30921774  0.54077733    -0.05670
C1866       C  0.04729309  0.30475653  0.54563909     0.00250
C1867       C  0.99926248  0.25428684  0.54506726    -0.08320
C1868       C  0.00219297  0.20885407  0.54011245    -0.05690
C1869       C  0.05093387  0.21327310  0.53464688     0.00240
C1870       C  0.09847039  0.26454702  0.53519307    -0.08230
C1871       C  0.15206176  0.27210944  0.53045294     0.62150
H1872       H  0.13214833  0.34838221  0.54155429     0.12850
H1873       H  0.96657455  0.16934212  0.54070635     0.12860
C1874       C  0.94563314  0.24914255  0.54947727     0.62390
F1875       F  0.19193630  0.32561286  0.52892790    -0.22780
F1876       F  0.14759976  0.24805310  0.51357358    -0.20110
F1877       F  0.16631564  0.24930657  0.54457509    -0.19790
F1878       F  0.93444603  0.27727845  0.53641058    -0.19840
F1879       F  0.94766449  0.26999256  0.56684338    -0.20160
F1880       F  0.90396973  0.19626424  0.54927706    -0.22830
C1881       C  0.88370920  0.63922969  0.51390080    -0.05670
C1882       C  0.92165859  0.63865675  0.50198227     0.00250
C1883       C  0.96470263  0.68723950  0.49488054    -0.08320
C1884       C  0.96719448  0.73530648  0.49944047    -0.05690
C1885       C  0.92968788  0.73610686  0.51143706     0.00240
C1886       C  0.88754398  0.68785163  0.51899126    -0.08230
C1887       C  0.84711667  0.68826190  0.53216603     0.62150
H1888       H  0.85113376  0.60138035  0.51910659     0.12850
H1889       H  0.99888861  0.77299292  0.49380255     0.12860
C1890       C  0.00841443  0.68819221  0.48292861     0.62390
F1891       F  0.80891458  0.63701392  0.53788931    -0.22780
F1892       F  0.82084008  0.71109260  0.52346388    -0.20110
F1893       F  0.87351834  0.71798025  0.54770569    -0.19790
F1894       F  0.98614171  0.65567901  0.46761957    -0.19840
F1895       F  0.03631292  0.66988191  0.49325678    -0.20160
F1896       F  0.04477953  0.73933134  0.47658571    -0.22830
C1897       C  0.88049438  0.49956357  0.43912834    -0.05670
C1898       C  0.85334268  0.49110760  0.45598729     0.00250
C1899       C  0.79708685  0.45516000  0.45691723    -0.08320
C1900       C  0.77025019  0.42637649  0.44096772    -0.05690
C1901       C  0.79751177  0.43318377  0.42426155     0.00240
C1902       C  0.85282323  0.47242775  0.42297835    -0.08230
C1903       C  0.88090305  0.48851615  0.40440524     0.62150
H1904       H  0.92328103  0.52851029  0.43866690     0.12850
H1905       H  0.72741547  0.39906841  0.44136609     0.12860
C1906       C  0.76549492  0.44713236  0.47461505     0.62390
F1907       F  0.93446077  0.52838779  0.40601761    -0.22780
F1908       F  0.85529063  0.50763033  0.39326172    -0.20110
F1909       F  0.87854133  0.44479600  0.39607353    -0.19790
F1910       F  0.76886265  0.49468708  0.47952372    -0.19840
F1911       F  0.78609654  0.43066049  0.48878206    -0.20160
F1912       F  0.71155541  0.40872357  0.47258149    -0.22830
C1913       C  0.02175188  0.53043123  0.51440703    -0.05670
C1914       C  0.96845738  0.49589344  0.50848788     0.00250
C1915       C  0.94157806  0.44093127  0.51381130    -0.08320
C1916       C  0.96875040  0.42345212  0.52530854    -0.05690
C1917       C  0.02170019  0.45779307  0.53136640     0.00240
C1918       C  0.04947075  0.51226313  0.52552764    -0.08230
C1919       C  0.10723934  0.55226789  0.53100346     0.62150
H1920       H  0.04169260  0.57232631  0.51034509     0.12850
H1921       H  0.94819369  0.38209589  0.52996613     0.12860
C1922       C  0.88382392  0.40051846  0.50830069     0.62390
F1923       F  0.13205920  0.59189774  0.51758622    -0.22780
F1924       F  0.13733575  0.52777736  0.53298388    -0.20110
F1925       F  0.10767430  0.57646936  0.54749823    -0.19790
F1926       F  0.88129466  0.38772830  0.48976580    -0.19840
F1927       F  0.85116599  0.42129377  0.51170948    -0.20160
F1928       F  0.86330083  0.35303033  0.51825387    -0.22830
C1929       C  0.75589543  0.63187990  0.85746332    -0.05670
C1930       C  0.74720881  0.63803596  0.87617147     0.00250
C1931       C  0.73293322  0.59519360  0.88882417    -0.08320
C1932       C  0.72771283  0.54743253  0.88207605    -0.05690
C1933       C  0.73619326  0.54102074  0.86329731     0.00240
C1934       C  0.75111584  0.58426821  0.85077437    -0.08230
C1935       C  0.76614914  0.58220385  0.83089780     0.62150
H1936       H  0.76716290  0.66539799  0.84811566     0.12850
H1937       H  0.71613567  0.51400610  0.89150421     0.12860
C1938       C  0.72142485  0.59863691  0.90917714     0.62390
F1939       F  0.78089678  0.62929781  0.82131542    -0.22780
F1940       F  0.72321444  0.54090943  0.82158726    -0.20110
F1941       F  0.80964042  0.57477237  0.83097017    -0.19790
F1942       F  0.68525247  0.61615904  0.91079919    -0.19840
F1943       F  0.76847984  0.63346575  0.91837784    -0.20160
F1944       F  0.69956137  0.54939534  0.91799040    -0.22830
C1945       C  0.79327400  0.77887763  0.93313200    -0.05670
C1946       C  0.81740273  0.80070584  0.91597599     0.00250
C1947       C  0.86632238  0.85047029  0.91511436    -0.08320
C1948       C  0.89003348  0.87697042  0.93181193    -0.05690
C1949       C  0.86600702  0.85475724  0.94895830     0.00240
C1950       C  0.81702037  0.80518756  0.94976930    -0.08230
C1951       C  0.79096511  0.77989047  0.96817594     0.62150
H1952       H  0.75564542  0.74080441  0.93334478     0.12850
H1953       H  0.92796121  0.91475236  0.93166479     0.12860
C1954       C  0.89366156  0.87447121  0.89672618     0.62390
F1955       F  0.74246247  0.73236874  0.96591007    -0.22780
F1956       F  0.78148441  0.81478869  0.97812185    -0.20110
F1957       F  0.82505647  0.76890009  0.97817023    -0.19790
F1958       F  0.86110378  0.88578844  0.88585998    -0.19840
F1959       F  0.90307823  0.83841724  0.88753681    -0.20160
F1960       F  0.94250187  0.92157587  0.89910127    -0.22830
C1961       C  0.46024510  0.71727306  0.77661193    -0.05670
C1962       C  0.46619034  0.75069701  0.76146002     0.00250
C1963       C  0.49366262  0.80729302  0.76433255    -0.08320
C1964       C  0.51503042  0.82744354  0.78189131    -0.05690
C1965       C  0.50714010  0.79420290  0.79718912     0.00240
C1966       C  0.47740323  0.73765543  0.79464832    -0.08230
C1967       C  0.46019861  0.69714047  0.81041757     0.62150
H1968       H  0.43822381  0.67418843  0.77461189     0.12850
H1969       H  0.53876383  0.87059818  0.78360532     0.12860
C1970       C  0.50377464  0.84995624  0.74994996     0.62390
F1971       F  0.40724662  0.65684316  0.80786233    -0.22780
F1972       F  0.46310823  0.71960184  0.82753579    -0.20110
F1973       F  0.49220269  0.67446766  0.81052909    -0.19790
F1974       F  0.48209161  0.82995322  0.73292872    -0.19840
F1975       F  0.55868749  0.88373799  0.74773619    -0.20160
F1976       F  0.48194513  0.87982575  0.75608906    -0.22830
C1977       C  0.62793755  0.05012697  0.83612080    -0.05670
C1978       C  0.59171741  0.05346802  0.84804005     0.00250
C1979       C  0.54849192  0.00623599  0.85576435    -0.08320
C1980       C  0.54284344  0.95640310  0.85115100    -0.05690
C1981       C  0.57896000  0.95323102  0.83900070     0.00240
C1982       C  0.62189472  0.00067965  0.83115504    -0.08230
C1983       C  0.66047294  0.99898624  0.81732071     0.62150
H1984       H  0.66040001  0.08693688  0.83029320     0.12850
H1985       H  0.51026462  0.91956190  0.85696878     0.12860
C1986       C  0.50897180  0.00902161  0.86872788     0.62390
F1987       F  0.69707367  0.04948262  0.81048510    -0.22780
F1988       F  0.63189520  0.96709839  0.80244289    -0.20110
F1989       F  0.68905965  0.97823447  0.82573355    -0.19790
F1990       F  0.48405957  0.03273064  0.85965384    -0.19840
F1991       F  0.53605839  0.03928259  0.88409270    -0.20160
F1992       F  0.46961073  0.95861583  0.87476449    -0.22830
C1993       C  0.65228235  0.77916914  0.87633660    -0.05670
C1994       C  0.68767532  0.77031330  0.86586034     0.00250
C1995       C  0.69497069  0.78366122  0.84673453    -0.08320
C1996       C  0.66630712  0.80595996  0.83877488    -0.05690
C1997       C  0.63098154  0.81504820  0.84926356     0.00240
C1998       C  0.62346132  0.80127480  0.86838868    -0.08230
C1999       C  0.58506868  0.80913864  0.88044346     0.62150
H2000       H  0.64814202  0.76930597  0.89099599     0.12850
H2001       H  0.67094008  0.81627255  0.82415370     0.12860
C2002       C  0.73330020  0.77534652  0.83480923     0.62390
F2003       F  0.57681766  0.78375138  0.89748578    -0.22780
F2004       F  0.53555475  0.78822747  0.87179466    -0.20110
F2005       F  0.60610627  0.86309929  0.88372052    -0.19790
F2006       F  0.71352675  0.72116619  0.83257129    -0.19840
F2007       F  0.78355490  0.79877842  0.84307147    -0.20160
F2008       F  0.73950094  0.79786574  0.81732394    -0.22830
C2009       C  0.06394950  0.32813491  0.67834552    -0.05670
C2010       C  0.07527598  0.28909660  0.67242497     0.00250
C2011       C  0.12808115  0.29811278  0.67458314    -0.08320
C2012       C  0.16897184  0.34873228  0.68082059    -0.05690
C2013       C  0.15764764  0.38842134  0.68610249     0.00240
C2014       C  0.10372143  0.37686651  0.68580170    -0.08230
C2015       C  0.08823278  0.41655004  0.69248578     0.62150
H2016       H  0.02314162  0.32006982  0.67695765     0.12850
H2017       H  0.21033600  0.35801477  0.68137742     0.12860
C2018       C  0.14115293  0.25452855  0.67095232     0.62390
F2019       F  0.03396463  0.39794197  0.69005595    -0.22780
F2020       F  0.11697059  0.46380430  0.68265733    -0.20110
F2021       F  0.09947799  0.42607185  0.71120807    -0.19790
F2022       F  0.14108574  0.24611446  0.65212775    -0.19840
F2023       F  0.10352626  0.20725925  0.67952939    -0.20160
F2024       F  0.19139710  0.26829931  0.67785462    -0.22830
C2025       C  0.01020974  0.12062475  0.62343241    -0.05670
C2026       C  0.98436477  0.15002840  0.62294684     0.00250
C2027       C  0.95711205  0.15093204  0.60668341    -0.08320
C2028       C  0.95713516  0.12186660  0.59109859    -0.05690
C2029       C  0.98323224  0.09230118  0.59164652     0.00240
C2030       C  0.00969375  0.09123862  0.60810500    -0.08230
C2031       C  0.03505930  0.05706316  0.60981476     0.62150
H2032       H  0.02997683  0.12006890  0.63618947     0.12850
H2033       H  0.93756463  0.12260187  0.57832646     0.12860
C2034       C  0.92947195  0.18336882  0.60576491     0.62390
F2035       F  0.05064572  0.05509024  0.62785890    -0.22780
F2036       F  0.08024090  0.07780054  0.59872811    -0.20110
F2037       F  0.99796574  0.00539847  0.60440835    -0.19790
F2038       F  0.96656585  0.23667526  0.60928905    -0.19840
F2039       F  0.88877889  0.16462725  0.61876550    -0.20160
F2040       F  0.90681425  0.18000426  0.58851656    -0.22830
C2041       C  0.59641761  0.93826696  0.70677822    -0.05670
C2042       C  0.59067750  0.98245973  0.70292924     0.00250
C2043       C  0.54548806  0.97538914  0.69284565    -0.08320
C2044       C  0.50480080  0.92279004  0.68833534    -0.05690
C2045       C  0.50975161  0.87836198  0.69282618     0.00240
C2046       C  0.55795267  0.88659757  0.70107391    -0.08230
C2047       C  0.57087914  0.84219664  0.70247396     0.62150
H2048       H  0.63277468  0.94512770  0.71369994     0.12850
H2049       H  0.46982774  0.91620943  0.68076280     0.12860
C2050       C  0.54161546  0.02315290  0.68633724     0.62390
F2051       F  0.62198897  0.86022494  0.70949608    -0.22780
F2052       F  0.56856232  0.82287380  0.68493383    -0.20110
F2053       F  0.53469779  0.80090270  0.71369644    -0.19790
F2054       F  0.58699914  0.05782469  0.67622174    -0.19840
F2055       F  0.53771684  0.04992599  0.70145305    -0.20160
F2056       F  0.49715300  0.00784725  0.67510903    -0.22830
C2057       C  0.71388150  0.21199332  0.76831697    -0.05670
C2058       C  0.67206549  0.18105378  0.78082451     0.00250
C2059       C  0.63446553  0.12677218  0.77632367    -0.08320
C2060       C  0.64331722  0.10484844  0.76041019    -0.05690
C2061       C  0.68346505  0.13608350  0.74731784     0.00240
C2062       C  0.71911830  0.19169322  0.75126281    -0.08230
C2063       C  0.76255098  0.23132640  0.73808281     0.62150
H2064       H  0.74207793  0.25347183  0.77176420     0.12850
H2065       H  0.61774205  0.06235742  0.75800730     0.12860
C2066       C  0.58451548  0.09151199  0.78783368     0.62390
F2067       F  0.77594851  0.28331932  0.74182726    -0.22780
F2068       F  0.74524540  0.22115253  0.71984482    -0.20110
F2069       F  0.80906486  0.22946840  0.74034381    -0.19790
F2070       F  0.54995903  0.11120841  0.78685178    -0.19840
F2071       F  0.59884169  0.09072455  0.80598457    -0.20160
F2072       F  0.55652042  0.03897943  0.78171328    -0.22830
C2073       C  0.82508451  0.10749358  0.70527839    -0.05670
C2074       C  0.78430009  0.11034310  0.69567305     0.00250
C2075       C  0.79312918  0.13099894  0.67732007    -0.08320
C2076       C  0.84330164  0.14841549  0.66924470    -0.05690
C2077       C  0.88428229  0.14592193  0.67884340     0.00240
C2078       C  0.87528949  0.12471698  0.69710599    -0.08230
C2079       C  0.91802956  0.12088785  0.70821061     0.62150
H2080       H  0.81741709  0.09206928  0.71936936     0.12850
H2081       H  0.85136119  0.16497280  0.65531308     0.12860
C2082       C  0.75077680  0.13628799  0.66639960     0.62390
F2083       F  0.89512937  0.08304973  0.72227293    -0.22780
F2084       F  0.95283831  0.16991321  0.71619488    -0.20110
F2085       F  0.94679089  0.10598453  0.69700288    -0.19790
F2086       F  0.73076655  0.16168856  0.67699813    -0.19840
F2087       F  0.70909711  0.08620157  0.66135822    -0.20160
F2088       F  0.77173033  0.16602549  0.65028386    -0.22830
loop_ 
_geom_bond_atom_site_label_1 
_geom_bond_atom_site_label_2 
_geom_bond_distance 
_geom_bond_site_symmetry_2 
_ccdc_geom_bond_type 
C1            C2   1.406       .  A
C1            C6   1.419       .  A
C1         C2061   1.508       .  S
C2            C3   1.399       .  A
C2            H7   1.072       .  S
C3            C4   1.387       .  A
C3         C2074   1.469       .  S
C4            C5   1.392       .  A
C4            H8   1.084       .  S
C5            C6   1.403       .  A
C5         C2042   1.474   1_545  S
C6            H9   1.081       .  S
C10          C11   1.395       .  A
C10          C15   1.403   1_655  A
C10        C2026   1.470       .  S
C11          C12   1.397       .  A
C11          H16   1.085       .  S
C12          C13   1.395       .  A
C12        C2077   1.471       .  S
C13          C14   1.402   1_655  A
C13          H17   1.082       .  S
C14          C15   1.405       .  A
C14        C2010   1.481       .  S
C15          H18   1.081       .  S
C19          C20   1.402       .  A
C19          C24   1.412       .  A
C19        C1965   1.494       .  S
C20          C21   1.402       .  A
C20          H25   1.083       .  S
C21          C22   1.401       .  A
C21        C1997   1.480       .  S
C22          C23   1.399       .  A
C22          H26   1.082       .  S
C23          C24   1.403       .  A
C23        C1981   1.481       .  S
C24          H27   1.084       .  S
C28          C29   1.395       .  A
C28          C33   1.401       .  A
C28        C1946   1.470       .  S
C29          C30   1.398       .  A
C29          H34   1.084       .  S
C30          C31   1.400       .  A
C30        C1994   1.475       .  S
C31          C32   1.404       .  A
C31          H35   1.083       .  S
C32          C33   1.404       .  A
C32        C1930   1.482       .  S
C33          H36   1.081       .  S
C37          C38   1.401       .  A
C37          C42   1.400       .  A
C37        C1882   1.471       .  S
C38          C39   1.406       .  A
C38          H43   1.084       .  S
C39          C40   1.402       .  A
C39        C1914   1.485       .  S
C40          C41   1.399       .  A
C40          H44   1.079       .  S
C41          C42   1.398       .  A
C41        C1898   1.472       .  S
C42          H45   1.084       .  S
C46          C47   1.406       .  A
C46          C51   1.406       .  A
C46        C1853   1.487       .  S
C47          C48   1.405       .  A
C47          H52   1.080       .  S
C48          C49   1.404       .  A
C48        C1917   1.483       .  S
C49          C50   1.393       .  A
C49          H53   1.084       .  S
C50          C51   1.398       .  A
C50        C1866   1.474       .  S
C51          H54   1.084       .  S
C55          C56   1.402       .  A
C55          C60   1.411       .  A
C55        C1805   1.489       .  S
C56          C57   1.398   1_556  A
C56          H61   1.083       .  S
C57          C58   1.395       .  A
C57        C1834   1.471       .  S
C58          C59   1.401   1_554  A
C58          H62   1.081       .  S
C59          C60   1.415       .  A
C59        C1818   1.497   1_556  S
C60          H63   1.083       .  S
C64          C65   1.402       .  A
C64          C69   1.407       .  A
C64        C1789   1.489       .  S
C65          C66   1.400       .  A
C65          H70   1.084       .  S
C66          C67   1.396       .  A
C66        C1837   1.471       .  S
C67          C68   1.401       .  A
C67          H71   1.078       .  S
C68          C69   1.416       .  A
C68        C1773   1.501       .  S
C69          H72   1.082       .  S
C73          C74   1.410       .  A
C73          C78   1.415   1_455  A
C73        C1722   1.507       .  S
C74          C75   1.395       .  A
C74          H79   1.083       .  S
C75          C76   1.390       .  A
C75        C1754   1.469       .  S
C76          C77   1.400   1_455  A
C76          H80   1.085       .  S
C77          C78   1.411       .  A
C77        C1738   1.495       .  S
C78          H81   1.073       .  S
C82          C83   1.407       .  A
C82          C87   1.407       .  A
C82        C1706   1.490       .  S
C83          C84   1.400       .  A
C83          H88   1.084       .  S
C84          C85   1.397       .  A
C84        C1757   1.467       .  S
C85          C86   1.397       .  A
C85          H89   1.084       .  S
C86          C87   1.400       .  A
C86        C1690   1.475       .  S
C87          H90   1.079       .  S
C91          C92   1.400       .  A
C91          C96   1.404       .  A
C91        C1661   1.478       .  S
C92          C93   1.397       .  A
C92          H97   1.084       .  S
C93          C94   1.397       .  A
C93        C1674   1.474       .  S
C94          C95   1.405       .  A
C94          H98   1.084       .  S
C95          C96   1.406       .  A
C95        C1645   1.486       .  S
C96          H99   1.080       .  S
C100        C101   1.401       .  A
C100        C105   1.408       .  A
C100       C1613   1.490       .  S
C101        C102   1.394       .  A
C101        H106   1.084       .  S
C102        C103   1.400       .  A
C102       C1677   1.476       .  S
C103        C104   1.405       .  A
C103        H107   1.075       .  S
C104        C105   1.417       .  A
C104       C1626   1.509   1_545  S
C105        H108   1.077       .  S
C109        C110   1.404       .  A
C109        C114   1.407       .  A
C109       C1578   1.495       .  S
C110        C111   1.404       .  A
C110        H115   1.080       .  S
C111        C112   1.406       .  A
C111       C1594   1.488       .  S
C112        C113   1.403       .  A
C112        H116   1.083       .  S
C113        C114   1.408       .  A
C113       C1565   1.490       .  S
C114        H117   1.080       .  S
C118        C119   1.404       .  A
C118        C123   1.408   1_565  A
C118       C1546   1.493       .  S
C119        C120   1.404       .  A
C119        H124   1.081       .  S
C120        C121   1.406       .  A
C120       C1597   1.490       .  S
C121        C122   1.402       .  A
C121        H125   1.084       .  S
C122        C123   1.411   1_565  A
C122       C1530   1.487   1_565  S
C123        H126   1.083       .  S
C127        C128   1.401       .  A
C127        C132   1.409       .  A
C127       C1498   1.493       .  S
C128        C129   1.396       .  A
C128        H133   1.084       .  S
C129        C130   1.398       .  A
C129       C1517   1.482       .  S
C130        C131   1.409       .  A
C130        H134   1.080       .  S
C131        C132   1.412       .  A
C131       C1482   1.504       .  S
C132        H135   1.076       .  S
C136        C137   1.400       .  A
C136        C141   1.405       .  A
C136       C1450   1.478       .  S
C137        C138   1.401       .  A
C137        H142   1.084       .  S
C138        C139   1.397       .  A
C138       C1514   1.472       .  S
C139        C140   1.397       .  A
C139        H143   1.083       .  S
C140        C141   1.405       .  A
C140       C1466   1.475       .  S
C141        H144   1.084       .  S
C145        C146   1.400       .  A
C145        C150   1.397       .  A
C145       C1418   1.473       .  S
C146        C147   1.403       .  A
C146        H151   1.081       .  S
C147        C148   1.411       .  A
C147       C1437   1.497       .  S
C148        C149   1.413       .  A
C148        H152   1.084       .  S
C149        C150   1.399       .  A
C149       C1405   1.484       .  S
C150        H153   1.083       .  S
C154        C155   1.404       .  A
C154        C159   1.415       .  A
C154       C1370   1.504       .  S
C155        C156   1.402       .  A
C155        H160   1.081       .  S
C156        C157   1.407       .  A
C156       C1434   1.489       .  S
C157        C158   1.411       .  A
C157        H161   1.083       .  S
C158        C159   1.413       .  A
C158       C1389   1.519       .  S
C159        H162   1.074       .  S
C163        C164   1.391       .  A
C163        C168   1.410       .  A
C163       C1322   1.485       .  S
C164        C165   1.393   1_556  A
C164        H169   1.083       .  S
C165        C166   1.409       .  A
C165       C1354   1.480       .  S
C166        C167   1.414       .  A
C166        H170   1.081       .  S
C167        C168   1.418   1_554  A
C167       C1338   1.511       .  S
C168        H171   1.083       .  S
C172        C173   1.408       .  A
C172        C177   1.411       .  A
C172       C1293   1.495       .  S
C173        C174   1.407       .  A
C173        H178   1.083       .  S
C174        C175   1.396       .  A
C174       C1357   1.479       .  S
C175        C176   1.394       .  A
C175        H179   1.083       .  S
C176        C177   1.403       .  A
C176       C1309   1.480       .  S
C177        H180   1.083       .  S
C181        C182   1.398       .  A
C181        C186   1.400       .  A
C181       C1245   1.468       .  S
C182        C183   1.397       .  A
C182        H187   1.083       .  S
C183        C184   1.407       .  A
C183       C1277   1.477       .  S
C184        C185   1.401       .  A
C184        H188   1.084       .  S
C185        C186   1.400       .  A
C185       C1261   1.477       .  S
C186        H189   1.084       .  S
C190        C191   1.398       .  A
C190        C195   1.408       .  A
C190       C1229   1.486       .  S
C191        C192   1.400       .  A
C191        H196   1.082       .  S
C192        C193   1.407       .  A
C192       C1274   1.489       .  S
C193        C194   1.414       .  A
C193        H197   1.082       .  S
C194        C195   1.407       .  A
C194       C1213   1.510       .  S
C195        H198   1.076       .  S
C199        C200   1.402       .  A
C199        C204   1.409       .  A
C199       C1165   1.480       .  S
C200        C201   1.402       .  A
C200        H205   1.084       .  S
C201        C202   1.397       .  A
C201       C1194   1.474       .  S
C202        C203   1.395       .  A
C202        H206   1.085       .  S
C203        C204   1.408       .  A
C203       C1178   1.476       .  S
C204        H207   1.083       .  S
C208        C209   1.401       .  A
C208        C213   1.403   1_545  A
C208       C1133   1.477   1_545  S
C209        C210   1.402       .  A
C209        H214   1.084       .  S
C210        C211   1.397       .  A
C210       C1197   1.470       .  S
C211        C212   1.395   1_545  A
C211        H215   1.083       .  S
C212        C213   1.405       .  A
C212       C1149   1.474       .  S
C213        H216   1.084       .  S
C217        C218   1.403       .  A
C217        C222   1.404       .  A
C217       C1098   1.484       .  S
C218        C219   1.403       .  A
C218        H223   1.084       .  S
C219        C220   1.404       .  A
C219       C1114   1.490       .  S
C220        C221   1.411       .  A
C220        H224   1.082       .  S
C221        C222   1.404       .  A
C221       C1082   1.496       .  S
C222        H225   1.077       .  S
C226        C227   1.403       .  A
C226        C231   1.406   1_565  A
C226       C1066   1.490       .  S
C227        C228   1.408       .  A
C227        H232   1.084       .  S
C228        C229   1.405       .  A
C228       C1117   1.491       .  S
C229        C230   1.404   1_565  A
C229        H233   1.079       .  S
C230        C231   1.411       .  A
C230       C1053   1.489       .  S
C231        H234   1.084       .  S
C235        C236   1.400       .  A
C235        C240   1.409       .  A
C235       C1018   1.482       .  S
C236        C237   1.399       .  A
C236        H241   1.083       .  S
C237        C238   1.404       .  A
C237       C1034   1.480       .  S
C238        C239   1.403       .  A
C238        H242   1.084       .  S
C239        C240   1.409       .  A
C239       C1002   1.488       .  S
C240        H243   1.084       .  S
C244        C245   1.397   1_565  A
C244        C249   1.406       .  A
C244        C986   1.475       .  S
C245        C246   1.394       .  A
C245        H250   1.083       .  S
C246        C247   1.402   1_545  A
C246       C1037   1.482       .  S
C247        C248   1.413       .  A
C247        H251   1.084       .  S
C248        C249   1.409       .  A
C248        C970   1.501       .  S
C249        H252   1.079       .  S
C253        C254   1.401       .  A
C253        C258   1.411       .  A
C253        C925   1.491       .  S
C254        C255   1.398       .  A
C254        H259   1.081       .  S
C255        C256   1.396       .  A
C255        C957   1.470   1_545  S
C256        C257   1.402       .  A
C256        H260   1.082   1_545  S
C257        C258   1.413       .  A
C257        C938   1.495       .  S
C258        H261   1.083       .  S
C262        C263   1.401       .  A
C262        C267   1.413       .  A
C262        C890   1.485       .  S
C263        C264   1.397       .  A
C263        H268   1.084       .  S
C264        C265   1.395       .  A
C264        C954   1.469       .  S
C265        C266   1.399       .  A
C265        H269   1.083       .  S
C266        C267   1.413       .  A
C266        C906   1.488       .  S
C267        H270   1.083       .  S
C271        C272   1.403       .  A
C271        C276   1.404       .  A
C271        C842   1.480       .  S
C272        C273   1.401       .  A
C272        H277   1.084       .  S
C273        C274   1.407       .  A
C273        C858   1.477       .  S
C274        C275   1.402       .  A
C274        H278   1.084       .  S
C275        C276   1.400       .  A
C275        C877   1.481       .  S
C276        H279   1.084       .  S
C280        C281   1.408   1_655  A
C280        C285   1.416       .  A
C280        C829   1.513       .  S
C281        C282   1.403       .  A
C281        H286   1.070       .  S
C282        C283   1.402   1_455  A
C282        C810   1.487       .  S
C283        C284   1.400       .  A
C283        H287   1.084       .  S
C284        C285   1.403       .  A
C284        C874   1.482       .  S
C285        H288   1.082       .  S
C289        C290   1.399   1_556  A
C289        C294   1.400       .  A
C289        C762   1.478   1_556  S
C290        C291   1.399       .  A
C290        H295   1.084       .  S
C291        C292   1.400   1_554  A
C291        C794   1.471       .  S
C292        C293   1.405       .  A
C292        H296   1.077       .  S
C293        C294   1.415       .  A
C293        C781   1.506       .  S
C294        H297   1.082       .  S
C298        C299   1.402       .  A
C298        C303   1.401       .  A
C298        C746   1.473       .  S
C299        C300   1.401       .  A
C299        H304   1.084       .  S
C300        C301   1.398       .  A
C300        C797   1.471       .  S
C301        C302   1.399       .  A
C301        H305   1.084       .  S
C302        C303   1.402       .  A
C302        C730   1.473       .  S
C303        H306   1.084       .  S
C307        C308   1.404       .  A
C307        C312   1.407       .  A
C307        C701   1.493       .  S
C308        C309   1.400       .  A
C308        H313   1.079       .  S
C309        C310   1.402       .  A
C309        C717   1.485       .  S
C310        C311   1.400       .  A
C310        H314   1.083       .  S
C311        C312   1.409       .  A
C311        C682   1.483       .  S
C312        H315   1.081       .  S
C316        C317   1.402       .  A
C316        C321   1.409   1_455  A
C316        C653   1.491       .  S
C317        C318   1.399       .  A
C317        H322   1.085       .  S
C318        C319   1.400       .  A
C318        C714   1.479       .  S
C319        C320   1.399   1_455  A
C319        H323   1.084       .  S
C320        C321   1.406       .  A
C320        C669   1.476       .  S
C321        H324   1.082       .  S
O325        C336   1.295       .  A
O325       Eu361   2.473       .  S
O326        C337   1.299       .  A
O326       Eu360   2.504       .  S
O327        C338   1.293       .  A
O327       Eu333   2.475       .  S
O328        C339   1.297       .  A
O328       Eu333   2.498       .  S
O329        C339   1.289       .  A
O329       Eu363   2.452       .  S
O330        C338   1.290       .  A
O330       Eu362   2.454       .  S
O331        C337   1.291       .  A
O331       Eu333   2.464       .  S
O332        C336   1.287       .  A
O332       Eu333   2.447       .  S
Eu333       O343   2.349       .  S
Eu333       O335   2.361       .  S
Eu333       O334   2.355       .  S
Eu333       O341   2.367       .  S
O334       Eu363   2.366       .  S
O334       Eu360   2.354       .  S
O335       Eu361   2.355       .  S
O335       Eu362   2.363       .  S
C336       C2058   1.494       .  S
C337       C1533   1.494       .  S
C338       C1978   1.476       .  S
C339       C1021   1.482       .  S
H340        O341   0.963       .  S
O341       Eu362   2.353       .  S
O341       Eu360   2.360       .  S
H342        O343   0.965       .  S
O343       Eu361   2.342       .  S
O343       Eu363   2.355       .  S
O344        C367   1.297       .  A
O344       Eu360   2.487       .  S
O345        C368   1.289       .  A
O345       Eu361   2.455       .  S
O346        C369   1.300       .  A
O346       Eu362   2.518       .  S
O347        C370   1.291       .  A
O347       Eu363   2.461       .  S
O348        C371   1.293       .  A
O348       Eu363   2.472       .  S
O349        C372   1.293       .  A
O349       Eu362   2.471       .  S
O350        C373   1.296       .  A
O350       Eu364   2.485       .  S
O351        C374   1.289       .  A
O351       Eu364   2.444       .  S
O352        C373   1.281       .  A
O352       Eu362   2.425       .  S
O353        C374   1.296       .  A
O353       Eu363   2.492       .  S
O354        C369   1.289       .  A
O354       Eu360   2.443       .  S
O355        C372   1.291       .  A
O355       Eu361   2.465       .  S
O356        C371   1.293       .  A
O356       Eu361   2.469       .  S
O357        C370   1.290       .  A
O357       Eu360   2.453       .  S
O358        C367   1.289       .  A
O358       Eu364   2.454       .  S
O359        C368   1.295       .  A
O359       Eu364   2.486       .  S
Eu360       O378   2.355       .  S
Eu360       O366   2.354       .  S
Eu361       O365   2.369       .  S
Eu361       O376   2.355       .  S
Eu362       O376   2.360       .  S
Eu362       O366   2.339       .  S
Eu363       O365   2.363       .  S
Eu363       O378   2.349       .  S
Eu364       O365   2.365       .  S
Eu364       O376   2.334       .  S
Eu364       O378   2.369       .  S
Eu364       O366   2.355       .  S
C367       C1802   1.489       .  S
C368       C1562   1.496       .  S
C369       C1325   1.505       .  S
C370        C698   1.475       .  S
C371       C1453   1.483       .  S
C372        C666   1.475       .  S
C373        C778   1.495       .  S
C374       C1933   1.488       .  S
H375        O376   0.965       .  S
H377        O378   0.965       .  S
O379        C390   1.291       .  A
O379       Eu415   2.461       .  S
O380        C391   1.290       .  A
O380       Eu414   2.458       .  S
O381        C392   1.293       .  A
O381       Eu387   2.478   1_455  S
O382        C393   1.286       .  A
O382       Eu387   2.436   1_554  S
O383        C393   1.298       .  A
O383       Eu417   2.493       .  S
O384        C392   1.290   1_545  A
O384       Eu416   2.455       .  S
O385        C391   1.290       .  A
O385       Eu387   2.459   1_454  S
O386        C390   1.287       .  A
O386       Eu387   2.438       .  S
Eu387       O397   2.368   1_556  S
Eu387       O389   2.333       .  S
Eu387       O388   2.345   1_556  S
Eu387       O395   2.349   1_656  S
O388       Eu417   2.354       .  S
O388       Eu414   2.349   1_655  S
O389       Eu415   2.350       .  S
O389       Eu416   2.345   1_665  S
C390       C1949   1.463       .  S
C391        C749   1.471       .  S
C392       C1549   1.487       .  S
C393       C1821   1.491       .  S
H394        O395   0.966       .  S
O395       Eu416   2.370   1_564  S
O395       Eu414   2.364       .  S
H396        O397   0.965       .  S
O397       Eu415   2.342   1_554  S
O397       Eu417   2.357       .  S
O398        C421   1.292       .  A
O398       Eu414   2.466   1_545  S
O399        C422   1.287       .  A
O399       Eu415   2.445   1_544  S
O400        C423   1.289       .  A
O400       Eu416   2.460   1_554  S
O401        C424   1.288       .  A
O401       Eu417   2.450       .  S
O402        C425   1.290       .  A
O402       Eu417   2.455       .  S
O403        C426   1.292       .  A
O403       Eu416   2.468       .  S
O404        C427   1.282       .  A
O404       Eu418   2.422       .  S
O405        C428   1.287   1_545  A
O405       Eu418   2.443   1_655  S
O406        C427   1.298       .  A
O406       Eu416   2.490   1_554  S
O407        C428   1.297       .  A
O407       Eu417   2.497       .  S
O408        C423   1.298       .  A
O408       Eu414   2.494   1_545  S
O409        C426   1.290   1_655  A
O409       Eu415   2.440   1_545  S
O410        C425   1.295       .  A
O410       Eu415   2.489   1_554  S
O411        C424   1.295   1_455  A
O411       Eu414   2.470       .  S
O412        C421   1.288       .  A
O412       Eu418   2.443       .  S
O413        C422   1.294       .  A
O413       Eu418   2.473   1_655  S
Eu414       O432   2.363       .  S
Eu414       O420   2.347   1_565  S
Eu415       O419   2.353   1_556  S
Eu415       O430   2.371   1_666  S
Eu416       O430   2.353   1_556  S
Eu416       O420   2.338   1_556  S
Eu417       O419   2.357       .  S
Eu417       O432   2.355   1_655  S
Eu418       O419   2.350   1_445  S
Eu418       O430   2.349       .  S
Eu418       O432   2.353   1_545  S
Eu418       O420   2.349       .  S
C421       C1642   1.473       .  S
C422        C765   1.478       .  S
C423       C1341   1.509       .  S
C424        C826   1.501       .  S
C425       C1290   1.496       .  S
C426        C650   1.493       .  S
C427       C1770   1.496       .  S
C428       C1130   1.483       .  S
H429        O430   0.965       .  S
H431        O432   0.965       .  S
O433        C444   1.285       .  A
O433       Eu469   2.429       .  S
O434        C445   1.297       .  A
O434       Eu468   2.498       .  S
O435        C446   1.287       .  A
O435       Eu441   2.446       .  S
O436        C447   1.287       .  A
O436       Eu441   2.452       .  S
O437        C447   1.295       .  A
O437       Eu471   2.469       .  S
O438        C446   1.297       .  A
O438       Eu470   2.484       .  S
O439        C445   1.292       .  A
O439       Eu441   2.470       .  S
O440        C444   1.296       .  A
O440       Eu441   2.490       .  S
Eu441       O451   2.347       .  S
Eu441       O443   2.345       .  S
Eu441       O442   2.361       .  S
Eu441       O449   2.362       .  S
O442       Eu471   2.360       .  S
O442       Eu468   2.343       .  S
O443       Eu469   2.354       .  S
O443       Eu470   2.359       .  S
C444       C1901   1.473       .  S
C445       C1050   1.495       .  S
C446        C922   1.497       .  S
C447       C1210   1.506       .  S
H448        O449   0.963       .  S
O449       Eu470   2.343       .  S
O449       Eu468   2.355       .  S
H450        O451   0.965       .  S
O451       Eu469   2.357       .  S
O451       Eu471   2.355       .  S
O452        C475   1.290       .  A
O452       Eu468   2.452       .  S
O453        C476   1.290       .  A
O453       Eu469   2.458       .  S
O454        C477   1.295       .  A
O454       Eu470   2.480       .  S
O455        C478   1.289       .  A
O455       Eu471   2.451       .  S
O456        C479   1.290       .  A
O456       Eu471   2.457       .  S
O457        C480   1.285       .  A
O457       Eu470   2.424       .  S
O458        C481   1.291       .  A
O458       Eu472   2.463       .  S
O459        C482   1.286       .  A
O459       Eu472   2.434       .  S
O460        C481   1.291       .  A
O460       Eu470   2.466       .  S
O461        C482   1.296       .  A
O461       Eu471   2.486       .  S
O462        C477   1.286       .  A
O462       Eu468   2.437       .  S
O463        C480   1.295       .  A
O463       Eu469   2.483       .  S
O464        C479   1.295       .  A
O464       Eu469   2.481       .  S
O465        C478   1.295       .  A
O465       Eu468   2.484       .  S
O466        C475   1.293       .  A
O466       Eu472   2.470       .  S
O467        C476   1.292       .  A
O467       Eu472   2.472       .  S
Eu468       O486   2.358       .  S
Eu468       O474   2.371       .  S
Eu469       O473   2.353       .  S
Eu469       O484   2.341       .  S
Eu470       O484   2.362       .  S
Eu470       O474   2.345       .  S
Eu471       O473   2.355       .  S
Eu471       O486   2.345       .  S
Eu472       O473   2.357       .  S
Eu472       O484   2.345       .  S
Eu472       O486   2.365       .  S
Eu472       O474   2.352       .  S
C475       C1610   1.474       .  S
C476       C1085   1.489       .  S
C477       C1693   1.476       .  S
C478       C1162   1.480       .  S
C479       C1741   1.490       .  S
C480       C1421   1.465       .  S
C481       C1258   1.476       .  S
C482        C845   1.477       .  S
H483        O484   0.965       .  S
H485        O486   0.965       .  S
O487        C498   1.289       .  A
O487       Eu523   2.454       .  S
O488        C499   1.288       .  A
O488       Eu522   2.435       .  S
O489        C500   1.293       .  A
O489       Eu495   2.474       .  S
O490        C501   1.286       .  A
O490       Eu495   2.432       .  S
O491        C501   1.301       .  A
O491       Eu525   2.511       .  S
O492        C500   1.290       .  A
O492       Eu524   2.455       .  S
O493        C499   1.295       .  A
O493       Eu495   2.488       .  S
O494        C498   1.293       .  A
O494       Eu495   2.475       .  S
Eu495       O505   2.359       .  S
Eu495       O497   2.351       .  S
Eu495       O496   2.348       .  S
Eu495       O503   2.343       .  S
O496       Eu525   2.343       .  S
O496       Eu522   2.336       .  S
O497       Eu523   2.355       .  S
O497       Eu524   2.358       .  S
C498       C2045   1.476       .  S
C499       C1581   1.482       .  S
C500        C973   1.490       .  S
C501       C1962   1.489       .  S
H502        O503   0.965       .  S
O503       Eu524   2.360       .  S
O503       Eu522   2.364       .  S
H504        O505   0.962       .  S
O505       Eu523   2.355       .  S
O505       Eu525   2.352       .  S
O506        C529   1.291       .  A
O506       Eu522   2.456       .  S
O507        C530   1.284       .  A
O507       Eu523   2.435       .  S
O508        C531   1.289       .  A
O508       Eu524   2.452       .  S
O509        C532   1.289       .  A
O509       Eu525   2.448       .  S
O510        C533   1.288       .  A
O510       Eu525   2.450       .  S
O511        C534   1.287       .  A
O511       Eu524   2.439       .  S
O512        C535   1.286       .  A
O512       Eu526   2.445       .  S
O513        C536   1.289       .  A
O513       Eu526   2.453       .  S
O514        C535   1.293       .  A
O514       Eu524   2.468       .  S
O515        C536   1.300       .  A
O515       Eu525   2.514       .  S
O516        C531   1.294       .  A
O516       Eu522   2.477       .  S
O517        C534   1.297       .  A
O517       Eu523   2.496       .  S
O518        C533   1.295       .  A
O518       Eu523   2.481       .  S
O519        C532   1.294       .  A
O519       Eu522   2.483       .  S
O520        C529   1.289       .  A
O520       Eu526   2.447       .  S
O521        C530   1.298       .  A
O521       Eu526   2.504       .  S
Eu522       O540   2.355       .  S
Eu522       O528   2.353       .  S
Eu523       O527   2.361       .  S
Eu523       O538   2.356       .  S
Eu524       O538   2.363       .  S
Eu524       O528   2.349       .  S
Eu525       O527   2.360       .  S
Eu525       O540   2.356       .  S
Eu526       O527   2.349       .  S
Eu526       O538   2.352       .  S
Eu526       O540   2.369       .  S
Eu526       O528   2.363       .  S
C529       C2013   1.477       .  S
C530       C1373   1.502       .  S
C531       C1469   1.476       .  S
C532        C685   1.480       .  S
C533       C1485   1.500       .  S
C534        C893   1.481       .  S
C535       C1850   1.496       .  S
C536       C1005   1.489       .  S
H537        O538   0.966       .  S
H539        O540   0.966       .  S
O541        C552   1.291       .  A
O541       Eu577   2.456       .  S
O542        C553   1.295       .  A
O542       Eu576   2.489       .  S
O543        C554   1.288       .  A
O543       Eu549   2.436       .  S
O544        C555   1.297       .  A
O544       Eu549   2.493       .  S
O545        C555   1.290       .  A
O545       Eu579   2.458       .  S
O546        C554   1.294       .  A
O546       Eu578   2.475       .  S
O547        C553   1.291       .  A
O547       Eu549   2.464       .  S
O548        C552   1.291       .  A
O548       Eu549   2.468       .  S
Eu549       O559   2.342       .  S
Eu549       O551   2.355       .  S
Eu549       O550   2.355       .  S
Eu549       O557   2.366       .  S
O550       Eu579   2.378       .  S
O550       Eu576   2.353       .  S
O551       Eu577   2.336       .  S
O551       Eu578   2.365       .  S
C552       C1786   1.489       .  S
C553       C1146   1.487       .  S
C554       C1306   1.474       .  S
C555        C861   1.483       .  S
H556        O557   0.965       .  S
O557       Eu578   2.356       .  S
O557       Eu576   2.348       .  S
H558        O559   0.965       .  S
O559       Eu577   2.358       .  S
O559       Eu579   2.362       .  S
O560        C583   1.290       .  A
O560       Eu576   2.440       .  S
O561        C584   1.286       .  A
O561       Eu577   2.441       .  S
O562        C585   1.296       .  A
O562       Eu578   2.476       .  S
O563        C586   1.287       .  A
O563       Eu579   2.438       .  S
O564        C587   1.293       .  A
O564       Eu579   2.467       .  S
O565        C588   1.285       .  A
O565       Eu578   2.428       .  S
O566        C589   1.281       .  A
O566       Eu580   2.414       .  S
O567        C590   1.279       .  A
O567       Eu580   2.396       .  S
O568        C589   1.299       .  A
O568       Eu578   2.511       .  S
O569        C590   1.299       .  A
O569       Eu579   2.508       .  S
O570        C585   1.288       .  A
O570       Eu576   2.452       .  S
O571        C588   1.293       .  A
O571       Eu577   2.473       .  S
O572        C587   1.288       .  A
O572       Eu577   2.445       .  S
O573        C586   1.299       .  A
O573       Eu576   2.500       .  S
O574        C583   1.293       .  A
O574       Eu580   2.479       .  S
O575        C584   1.297       .  A
O575       Eu580   2.496       .  S
Eu576       O594   2.354       .  S
Eu576       O582   2.362       .  S
Eu577       O581   2.364       .  S
Eu577       O592   2.356       .  S
Eu578       O592   2.357       .  S
Eu578       O582   2.331       .  S
Eu579       O581   2.349       .  S
Eu579       O594   2.346       .  S
Eu580       O581   2.349       .  S
Eu580       O592   2.344       .  S
Eu580       O594   2.349       .  S
Eu580       O582   2.339       .  S
C583       C1709   1.497       .  S
C584       C1181   1.480       .  S
C585       C1629   1.497       .  S
C586       C1101   1.482       .  S
C587       C1658   1.467       .  S
C588        C733   1.467       .  S
C589        C813   1.490       .  S
C590       C1226   1.481       .  S
H591        O592   0.965       .  S
H593        O594   0.965       .  S
O595        C606   1.287   1_455  A
O595       Eu631   2.435       .  S
O596        C607   1.293       .  A
O596       Eu630   2.487       .  S
O597        C608   1.297       .  A
O597       Eu603   2.490   1_545  S
O598        C609   1.292       .  A
O598       Eu603   2.464       .  S
O599        C609   1.290       .  A
O599       Eu633   2.456   1_655  S
O600        C608   1.287       .  A
O600       Eu632   2.445       .  S
O601        C607   1.291       .  A
O601       Eu603   2.446       .  S
O602        C606   1.295       .  A
O602       Eu603   2.482   1_545  S
Eu603       O613   2.368       .  S
Eu603       O605   2.337   1_565  S
Eu603       O604   2.360       .  S
Eu603       O611   2.355       .  S
O604       Eu633   2.348   1_655  S
O604       Eu630   2.354       .  S
O605       Eu631   2.361   1_655  S
O605       Eu632   2.336       .  S
C606       C2029   1.475       .  S
C607       C1386   1.511       .  S
C608        C941   1.493       .  S
C609       C1501   1.482       .  S
H610        O611   0.965       .  S
O611       Eu632   2.355   1_565  S
O611       Eu630   2.346       .  S
H612        O613   0.966       .  S
O613       Eu631   2.368   1_665  S
O613       Eu633   2.355   1_655  S
O614        C637   1.291   1_655  A
O614       Eu630   2.452       .  S
O615        C638   1.299       .  A
O615       Eu631   2.504       .  S
O616        C639   1.295   1_545  A
O616       Eu632   2.489       .  S
O617        C640   1.290       .  A
O617       Eu633   2.459   1_655  S
O618        C641   1.288       .  A
O618       Eu633   2.449       .  S
O619        C642   1.298       .  A
O619       Eu632   2.498   1_455  S
O620        C643   1.291       .  A
O620       Eu634   2.462   1_545  S
O621        C644   1.295       .  A
O621       Eu634   2.485       .  S
O622        C643   1.288       .  A
O622       Eu632   2.442   1_455  S
O623        C644   1.289       .  A
O623       Eu633   2.452       .  S
O624        C639   1.293       .  A
O624       Eu630   2.474       .  S
O625        C642   1.294       .  A
O625       Eu631   2.479       .  S
O626        C641   1.296   1_545  A
O626       Eu631   2.496       .  S
O627        C640   1.289       .  A
O627       Eu630   2.453       .  S
O628        C637   1.292       .  A
O628       Eu634   2.470       .  S
O629        C638   1.289       .  A
O629       Eu634   2.455   1_545  S
Eu630       O648   2.363   1_655  S
Eu630       O636   2.359       .  S
Eu631       O635   2.339   1_545  S
Eu631       O646   2.361       .  S
Eu632       O646   2.374   1_655  S
Eu632       O636   2.361   1_545  S
Eu633       O635   2.353       .  S
Eu633       O648   2.348       .  S
Eu634       O635   2.349       .  S
Eu634       O646   2.374   1_565  S
Eu634       O648   2.350       .  S
Eu634       O636   2.364   1_455  S
C637       C1725   1.492       .  S
C638       C1402   1.495       .  S
C639       C1069   1.491       .  S
C640       C1885   1.466       .  S
C641        C989   1.484       .  S
C642       C1869   1.499       .  S
C643       C1242   1.463       .  S
C644        C909   1.486       .  S
H645        O646   0.964       .  S
H647        O648   0.965       .  S
C649        C650   1.412   1_655  A
C649        C654   1.405       .  A
C649        H656   1.084       .  S
C650        C651   1.421       .  A
C651        C652   1.406       .  A
C651        C658   1.522       .  S
C652        C653   1.409       .  A
C652        H657   1.082       .  S
C653        C654   1.416   1_455  A
C654        C655   1.520       .  S
C655        F659   1.385   1_545  S
C655        F660   1.382       .  S
C655        F661   1.383       .  S
C658        F662   1.384       .  S
C658        F663   1.383       .  S
C658        F664   1.385       .  S
C665        C666   1.402       .  A
C665        C670   1.405       .  A
C665        H672   1.084       .  S
C666        C667   1.411       .  A
C667        C668   1.408       .  A
C667        C674   1.512       .  S
C668        C669   1.404       .  A
C668        H673   1.083       .  S
C669        C670   1.413       .  A
C670        C671   1.518       .  S
C671        F675   1.385       .  S
C671        F676   1.383   1_655  S
C671        F677   1.383       .  S
C674        F678   1.383       .  S
C674        F679   1.380       .  S
C674        F680   1.384       .  S
C681        C682   1.398       .  A
C681        C686   1.401       .  A
C681        H688   1.083       .  S
C682        C683   1.420       .  A
C683        C684   1.413       .  A
C683        C690   1.519       .  S
C684        C685   1.404       .  A
C684        H689   1.082       .  S
C685        C686   1.413       .  A
C686        C687   1.508       .  S
C687        F691   1.383       .  S
C687        F692   1.381       .  S
C687        F693   1.382       .  S
C690        F694   1.383       .  S
C690        F695   1.381       .  S
C690        F696   1.384       .  S
C697        C698   1.401       .  A
C697        C702   1.411       .  A
C697        H704   1.084       .  S
C698        C699   1.415       .  A
C699        C700   1.402       .  A
C699        C706   1.521       .  S
C700        C701   1.407       .  A
C700        H705   1.083       .  S
C701        C702   1.423       .  A
C702        C703   1.520       .  S
C703        F707   1.385       .  S
C703        F708   1.384       .  S
C703        F709   1.380       .  S
C706        F710   1.382       .  S
C706        F711   1.380       .  S
C706        F712   1.385       .  S
C713        C714   1.405       .  A
C713        C718   1.401       .  A
C713        H720   1.084       .  S
C714        C715   1.415       .  A
C715        C716   1.404       .  A
C715        C722   1.519       .  S
C716        C717   1.408       .  A
C716        H721   1.084       .  S
C717        C718   1.420       .  A
C718        C719   1.523       .  S
C719        F723   1.385       .  S
C719        F724   1.383       .  S
C719        F725   1.383       .  S
C722        F726   1.383       .  S
C722        F727   1.382       .  S
C722        F728   1.384       .  S
C729        C730   1.402       .  A
C729        C734   1.402       .  A
C729        H736   1.083       .  S
C730        C731   1.415       .  A
C731        C732   1.405       .  A
C731        C738   1.518       .  S
C732        C733   1.401       .  A
C732        H737   1.084       .  S
C733        C734   1.416       .  A
C734        C735   1.519       .  S
C735        F739   1.385       .  S
C735        F740   1.382       .  S
C735        F741   1.380       .  S
C738        F742   1.384       .  S
C738        F743   1.381       .  S
C738        F744   1.384       .  S
C745        C746   1.395       .  A
C745        C750   1.398       .  A
C745        H752   1.085       .  S
C746        C747   1.413       .  A
C747        C748   1.411       .  A
C747        C754   1.515       .  S
C748        C749   1.404       .  A
C748        H753   1.083       .  S
C749        C750   1.422       .  A
C750        C751   1.519   1_455  S
C751        F755   1.384       .  S
C751        F756   1.379       .  S
C751        F757   1.381       .  S
C754        F758   1.383       .  S
C754        F759   1.383       .  S
C754        F760   1.384       .  S
C761        C762   1.407       .  A
C761        C766   1.409       .  A
C761        H768   1.083       .  S
C762        C763   1.417       .  A
C763        C764   1.402       .  A
C763        C770   1.521   1_655  S
C764        C765   1.401       .  A
C764        H769   1.080   1_655  S
C765        C766   1.415       .  A
C766        C767   1.519       .  S
C767        F771   1.384       .  S
C767        F772   1.383       .  S
C767        F773   1.383   1_554  S
C770        F774   1.383       .  S
C770        F775   1.381   1_554  S
C770        F776   1.384   1_554  S
C777        C778   1.405       .  A
C777        C782   1.409       .  A
C777        H784   1.083       .  S
C778        C779   1.425       .  A
C779        C780   1.399       .  A
C779        C786   1.525       .  S
C780        C781   1.406       .  A
C780        H785   1.080       .  S
C781        C782   1.431       .  A
C782        C783   1.522       .  S
C783        F787   1.385       .  S
C783        F788   1.382       .  S
C783        F789   1.383       .  S
C786        F790   1.374       .  S
C786        F791   1.374       .  S
C786        F792   1.386       .  S
C793        C794   1.402       .  A
C793        C798   1.400   1_655  A
C793        H800   1.084   1_654  S
C794        C795   1.410       .  A
C795        C796   1.408       .  A
C795        C802   1.514       .  S
C796        C797   1.405   1_655  A
C796        H801   1.083       .  S
C797        C798   1.412       .  A
C798        C799   1.518       .  S
C799        F803   1.385   1_554  S
C799        F804   1.382       .  S
C799        F805   1.382   1_554  S
C802        F806   1.383       .  S
C802        F807   1.383       .  S
C802        F808   1.384       .  S
C809        C810   1.397       .  A
C809        C814   1.405       .  A
C809        H816   1.083       .  S
C810        C811   1.419       .  A
C811        C812   1.408       .  A
C811        C818   1.514       .  S
C812        C813   1.401       .  A
C812        H817   1.083       .  S
C813        C814   1.428       .  A
C814        C815   1.517       .  S
C815        F819   1.384       .  S
C815        F820   1.383       .  S
C815        F821   1.377       .  S
C818        F822   1.381       .  S
C818        F823   1.382       .  S
C818        F824   1.382       .  S
C825        C826   1.404   1_455  A
C825        C830   1.405       .  A
C825        H832   1.079       .  S
C826        C827   1.425       .  A
C827        C828   1.410       .  A
C827        C834   1.524       .  S
C828        C829   1.411       .  A
C828        H833   1.081       .  S
C829        C830   1.430   1_655  A
C830        C831   1.522       .  S
C831        F835   1.380       .  S
C831        F836   1.380       .  S
C831        F837   1.378       .  S
C834        F838   1.383       .  S
C834        F839   1.383       .  S
C834        F840   1.385       .  S
C841        C842   1.402       .  A
C841        C846   1.406       .  A
C841        H848   1.083       .  S
C842        C843   1.415       .  A
C843        C844   1.404       .  A
C843        C850   1.514       .  S
C844        C845   1.401       .  A
C844        H849   1.085       .  S
C845        C846   1.420       .  A
C846        C847   1.517       .  S
C847        F851   1.384       .  S
C847        F852   1.379       .  S
C847        F853   1.381       .  S
C850        F854   1.381       .  S
C850        F855   1.383       .  S
C850        F856   1.382       .  S
C857        C858   1.387       .  A
C857        C862   1.393       .  A
C857        H864   1.087       .  S
C858        C859   1.414       .  A
C859        C860   1.420       .  A
C859        C866   1.513       .  S
C860        C861   1.411       .  A
C860        H865   1.083       .  S
C861        C862   1.418       .  A
C862        C863   1.502       .  S
C863        F867   1.375       .  S
C863        F868   1.380       .  S
C863        F869   1.379       .  S
C866        F870   1.383       .  S
C866        F871   1.383       .  S
C866        F872   1.381       .  S
C873        C874   1.403       .  A
C873        C878   1.405       .  A
C873        H880   1.083       .  S
C874        C875   1.414       .  A
C875        C876   1.411       .  A
C875        C882   1.516       .  S
C876        C877   1.405       .  A
C876        H881   1.083       .  S
C877        C878   1.413       .  A
C878        C879   1.517       .  S
C879        F883   1.384       .  S
C879        F884   1.383       .  S
C879        F885   1.380       .  S
C882        F886   1.382       .  S
C882        F887   1.383       .  S
C882        F888   1.385       .  S
C889        C890   1.402       .  A
C889        C894   1.409       .  A
C889        H896   1.083       .  S
C890        C891   1.418       .  A
C891        C892   1.411       .  A
C891        C898   1.518       .  S
C892        C893   1.403       .  A
C892        H897   1.083       .  S
C893        C894   1.419       .  A
C894        C895   1.520       .  S
C895        F899   1.385       .  S
C895        F900   1.382       .  S
C895        F901   1.384       .  S
C898        F902   1.383       .  S
C898        F903   1.382       .  S
C898        F904   1.385       .  S
C905        C906   1.403       .  A
C905        C910   1.412       .  A
C905        H912   1.083       .  S
C906        C907   1.421       .  A
C907        C908   1.408       .  A
C907        C914   1.522       .  S
C908        C909   1.402       .  A
C908        H913   1.083       .  S
C909        C910   1.418       .  A
C910        C911   1.515       .  S
C911        F915   1.384       .  S
C911        F916   1.382       .  S
C911        F917   1.382       .  S
C914        F918   1.381   1_565  S
C914        F919   1.384       .  S
C914        F920   1.383   1_565  S
C921        C922   1.408       .  A
C921        C926   1.409       .  A
C921        H928   1.083       .  S
C922        C923   1.428       .  A
C923        C924   1.409       .  A
C923        C930   1.524       .  S
C924        C925   1.402       .  A
C924        H929   1.083       .  S
C925        C926   1.419       .  A
C926        C927   1.521       .  S
C927        F931   1.385       .  S
C927        F932   1.381       .  S
C927        F933   1.384   1_545  S
C930        F934   1.378       .  S
C930        F935   1.382       .  S
C930        F936   1.385       .  S
C937        C938   1.404       .  A
C937        C942   1.408       .  A
C937        H944   1.082       .  S
C938        C939   1.423   1_545  A
C939        C940   1.406       .  A
C939        C946   1.522       .  S
C940        C941   1.405   1_565  A
C940        H945   1.085       .  S
C941        C942   1.425       .  A
C942        C943   1.518       .  S
C943        F947   1.385       .  S
C943        F948   1.383       .  S
C943        F949   1.374       .  S
C946        F950   1.382       .  S
C946        F951   1.383       .  S
C946        F952   1.385       .  S
C953        C954   1.402       .  A
C953        C958   1.404   1_565  A
C953        H960   1.084       .  S
C954        C955   1.411       .  A
C955        C956   1.404       .  A
C955        C962   1.517       .  S
C956        C957   1.403       .  A
C956        H961   1.084       .  S
C957        C958   1.411   1_565  A
C958        C959   1.516       .  S
C959        F963   1.384       .  S
C959        F964   1.383       .  S
C959        F965   1.383       .  S
C962        F966   1.383       .  S
C962        F967   1.383       .  S
C962        F968   1.384       .  S
C969        C970   1.403       .  A
C969        C974   1.403       .  A
C969        H976   1.082       .  S
C970        C971   1.425       .  A
C971        C972   1.415       .  A
C971        C978   1.519       .  S
C972        C973   1.406       .  A
C972        H977   1.084       .  S
C973        C974   1.417       .  A
C974        C975   1.514       .  S
C975        F979   1.383       .  S
C975        F980   1.383       .  S
C975        F981   1.383       .  S
C978        F982   1.382       .  S
C978        F983   1.383       .  S
C978        F984   1.385       .  S
C985        C986   1.399       .  A
C985        C990   1.407       .  A
C985        H992   1.083       .  S
C986        C987   1.412       .  A
C987        C988   1.405       .  A
C987        C994   1.519       .  S
C988        C989   1.401       .  A
C988        H993   1.071       .  S
C989        C990   1.414       .  A
C990        C991   1.506       .  S
C991        F995   1.382       .  S
C991        F996   1.383   1_565  S
C991        F997   1.380       .  S
C994        F998   1.382   1_565  S
C994        F999   1.383       .  S
C994       F1000   1.384       .  S
C1001      C1002   1.405       .  A
C1001      C1006   1.413       .  A
C1001      H1008   1.084       .  S
C1002      C1003   1.415       .  A
C1003      C1004   1.409       .  A
C1003      C1010   1.521       .  S
C1004      C1005   1.403       .  A
C1004      H1009   1.079       .  S
C1005      C1006   1.421       .  A
C1006      C1007   1.516       .  S
C1007      F1011   1.382       .  S
C1007      F1012   1.382       .  S
C1007      F1013   1.384       .  S
C1010      F1014   1.383       .  S
C1010      F1015   1.381       .  S
C1010      F1016   1.384       .  S
C1017      C1018   1.401       .  A
C1017      C1022   1.406       .  A
C1017      H1024   1.084       .  S
C1018      C1019   1.415       .  A
C1019      C1020   1.411       .  A
C1019      C1026   1.516       .  S
C1020      C1021   1.404       .  A
C1020      H1025   1.084       .  S
C1021      C1022   1.414       .  A
C1022      C1023   1.509       .  S
C1023      F1027   1.384       .  S
C1023      F1028   1.381       .  S
C1023      F1029   1.383       .  S
C1026      F1030   1.383       .  S
C1026      F1031   1.382       .  S
C1026      F1032   1.383       .  S
C1033      C1034   1.400       .  A
C1033      C1038   1.406       .  A
C1033      H1040   1.083       .  S
C1034      C1035   1.420       .  A
C1035      C1036   1.406       .  A
C1035      C1042   1.521       .  S
C1036      C1037   1.401       .  A
C1036      H1041   1.083       .  S
C1037      C1038   1.421       .  A
C1038      C1039   1.522       .  S
C1039      F1043   1.385       .  S
C1039      F1044   1.381       .  S
C1039      F1045   1.383       .  S
C1042      F1046   1.383       .  S
C1042      F1047   1.381       .  S
C1042      F1048   1.385       .  S
C1049      C1050   1.407       .  A
C1049      C1054   1.418       .  A
C1049      H1056   1.083       .  S
C1050      C1051   1.423       .  A
C1051      C1052   1.401       .  A
C1051      C1058   1.511       .  S
C1052      C1053   1.395       .  A
C1052      H1057   1.084       .  S
C1053      C1054   1.419       .  A
C1054      C1055   1.516       .  S
C1055      F1059   1.385       .  S
C1055      F1060   1.381       .  S
C1055      F1061   1.383       .  S
C1058      F1062   1.380       .  S
C1058      F1063   1.379       .  S
C1058      F1064   1.385       .  S
C1065      C1066   1.402       .  A
C1065      C1070   1.410       .  A
C1065      H1072   1.083       .  S
C1066      C1067   1.417       .  A
C1067      C1068   1.414       .  A
C1067      C1074   1.517       .  S
C1068      C1069   1.405       .  A
C1068      H1073   1.082       .  S
C1069      C1070   1.417       .  A
C1070      C1071   1.512       .  S
C1071      F1075   1.385       .  S
C1071      F1076   1.377   1_565  S
C1071      F1077   1.384       .  S
C1074      F1078   1.384       .  S
C1074      F1079   1.382       .  S
C1074      F1080   1.383       .  S
C1081      C1082   1.400       .  A
C1081      C1086   1.400       .  A
C1081      H1088   1.080       .  S
C1082      C1083   1.422       .  A
C1083      C1084   1.416       .  A
C1083      C1090   1.518       .  S
C1084      C1085   1.407       .  A
C1084      H1089   1.084       .  S
C1085      C1086   1.418       .  A
C1086      C1087   1.517       .  S
C1087      F1091   1.384       .  S
C1087      F1092   1.381       .  S
C1087      F1093   1.383       .  S
C1090      F1094   1.381       .  S
C1090      F1095   1.384       .  S
C1090      F1096   1.383       .  S
C1097      C1098   1.403       .  A
C1097      C1102   1.406       .  A
C1097      H1104   1.083       .  S
C1098      C1099   1.419       .  A
C1099      C1100   1.409       .  A
C1099      C1106   1.521       .  S
C1100      C1101   1.401       .  A
C1100      H1105   1.077       .  S
C1101      C1102   1.414       .  A
C1102      C1103   1.509       .  S
C1103      F1107   1.384       .  S
C1103      F1108   1.381       .  S
C1103      F1109   1.374       .  S
C1106      F1110   1.379       .  S
C1106      F1111   1.384       .  S
C1106      F1112   1.382       .  S
C1113      C1114   1.404       .  A
C1113      C1118   1.411       .  A
C1113      H1120   1.083       .  S
C1114      C1115   1.421       .  A
C1115      C1116   1.406       .  A
C1115      C1122   1.520       .  S
C1116      C1117   1.403       .  A
C1116      H1121   1.083       .  S
C1117      C1118   1.422       .  A
C1118      C1119   1.521       .  S
C1119      F1123   1.385       .  S
C1119      F1124   1.381       .  S
C1119      F1125   1.383       .  S
C1122      F1126   1.383       .  S
C1122      F1127   1.381       .  S
C1122      F1128   1.385       .  S
C1129      C1130   1.404   1_545  A
C1129      C1134   1.405       .  A
C1129      H1136   1.082       .  S
C1130      C1131   1.415       .  A
C1131      C1132   1.409       .  A
C1131      C1138   1.512       .  S
C1132      C1133   1.402       .  A
C1132      H1137   1.083       .  S
C1133      C1134   1.412   1_565  A
C1134      C1135   1.518       .  S
C1135      F1139   1.384       .  S
C1135      F1140   1.383       .  S
C1135      F1141   1.383       .  S
C1138      F1142   1.382   1_565  S
C1138      F1143   1.382       .  S
C1138      F1144   1.384       .  S
C1145      C1146   1.402       .  A
C1145      C1150   1.410       .  A
C1145      H1152   1.079       .  S
C1146      C1147   1.411       .  A
C1147      C1148   1.398       .  A
C1147      C1154   1.491       .  S
C1148      C1149   1.393       .  A
C1148      H1153   1.084       .  S
C1149      C1150   1.417       .  A
C1150      C1151   1.519       .  S
C1151      F1155   1.384       .  S
C1151      F1156   1.383       .  S
C1151      F1157   1.381   1_565  S
C1154      F1158   1.383       .  S
C1154      F1159   1.383       .  S
C1154      F1160   1.386       .  S
C1161      C1162   1.402       .  A
C1161      C1166   1.408       .  A
C1161      H1168   1.085       .  S
C1162      C1163   1.415       .  A
C1163      C1164   1.410       .  A
C1163      C1170   1.516       .  S
C1164      C1165   1.404       .  A
C1164      H1169   1.083       .  S
C1165      C1166   1.418       .  A
C1166      C1167   1.518       .  S
C1167      F1171   1.384       .  S
C1167      F1172   1.381       .  S
C1167      F1173   1.379       .  S
C1170      F1174   1.382       .  S
C1170      F1175   1.380       .  S
C1170      F1176   1.384       .  S
C1177      C1178   1.405       .  A
C1177      C1182   1.410   1_655  A
C1177      H1184   1.085       .  S
C1178      C1179   1.412   1_655  A
C1179      C1180   1.402       .  A
C1179      C1186   1.519       .  S
C1180      C1181   1.400       .  A
C1180      H1185   1.082       .  S
C1181      C1182   1.419       .  A
C1182      C1183   1.516       .  S
C1183      F1187   1.383       .  S
C1183      F1188   1.380       .  S
C1183      F1189   1.381       .  S
C1186      F1190   1.383   1_455  S
C1186      F1191   1.383       .  S
C1186      F1192   1.384       .  S
C1193      C1194   1.403       .  A
C1193      C1198   1.401       .  A
C1193      H1200   1.085       .  S
C1194      C1195   1.418       .  A
C1195      C1196   1.400       .  A
C1195      C1202   1.520       .  S
C1196      C1197   1.401       .  A
C1196      H1201   1.085       .  S
C1197      C1198   1.418       .  A
C1198      C1199   1.519       .  S
C1199      F1203   1.384       .  S
C1199      F1204   1.382       .  S
C1199      F1205   1.383       .  S
C1202      F1206   1.383       .  S
C1202      F1207   1.382       .  S
C1202      F1208   1.384       .  S
C1209      C1210   1.407       .  A
C1209      C1214   1.404       .  A
C1209      H1216   1.082       .  S
C1210      C1211   1.428       .  A
C1211      C1212   1.412       .  A
C1211      C1218   1.523       .  S
C1212      C1213   1.409   1_655  A
C1212      H1217   1.081   1_655  S
C1213      C1214   1.428   1_455  A
C1214      C1215   1.524       .  S
C1215      F1219   1.386       .  S
C1215      F1220   1.381   1_655  S
C1215      F1221   1.381   1_655  S
C1218      F1222   1.384       .  S
C1218      F1223   1.379       .  S
C1218      F1224   1.385       .  S
C1225      C1226   1.400       .  A
C1225      C1230   1.405       .  A
C1225      H1232   1.084       .  S
C1226      C1227   1.424       .  A
C1227      C1228   1.396       .  A
C1227      C1234   1.515       .  S
C1228      C1229   1.397       .  A
C1228      H1233   1.078       .  S
C1229      C1230   1.419       .  A
C1230      C1231   1.511       .  S
C1231      F1235   1.382       .  S
C1231      F1236   1.379       .  S
C1231      F1237   1.383       .  S
C1234      F1238   1.368       .  S
C1234      F1239   1.383       .  S
C1234      F1240   1.385       .  S
C1241      C1242   1.400       .  A
C1241      C1246   1.403       .  A
C1241      H1248   1.077       .  S
C1242      C1243   1.411       .  A
C1243      C1244   1.401       .  A
C1243      C1250   1.516       .  S
C1244      C1245   1.400       .  A
C1244      H1249   1.084       .  S
C1245      C1246   1.415       .  A
C1246      C1247   1.519       .  S
C1247      F1251   1.385       .  S
C1247      F1252   1.384       .  S
C1247      F1253   1.381       .  S
C1250      F1254   1.382   1_455  S
C1250      F1255   1.381       .  S
C1250      F1256   1.383       .  S
C1257      C1258   1.402       .  A
C1257      C1262   1.406       .  A
C1257      H1264   1.084       .  S
C1258      C1259   1.411       .  A
C1259      C1260   1.406       .  A
C1259      C1266   1.506       .  S
C1260      C1261   1.400       .  A
C1260      H1265   1.083       .  S
C1261      C1262   1.418       .  A
C1262      C1263   1.518       .  S
C1263      F1267   1.385       .  S
C1263      F1268   1.383       .  S
C1263      F1269   1.380       .  S
C1266      F1270   1.383       .  S
C1266      F1271   1.382       .  S
C1266      F1272   1.384       .  S
C1273      C1274   1.408       .  A
C1273      C1278   1.410       .  A
C1273      H1280   1.083       .  S
C1274      C1275   1.422       .  A
C1275      C1276   1.395       .  A
C1275      C1282   1.516       .  S
C1276      C1277   1.395       .  A
C1276      H1281   1.082       .  S
C1277      C1278   1.419       .  A
C1278      C1279   1.519       .  S
C1279      F1283   1.384       .  S
C1279      F1284   1.383       .  S
C1279      F1285   1.383       .  S
C1282      F1286   1.382       .  S
C1282      F1287   1.377       .  S
C1282      F1288   1.385       .  S
C1289      C1290   1.406       .  A
C1289      C1294   1.416       .  A
C1289      H1296   1.084   1_554  S
C1290      C1291   1.422       .  A
C1291      C1292   1.400       .  A
C1291      C1298   1.512       .  S
C1292      C1293   1.399       .  A
C1292      H1297   1.083       .  S
C1293      C1294   1.423       .  A
C1294      C1295   1.517   1_554  S
C1295      F1299   1.384       .  S
C1295      F1300   1.382       .  S
C1295      F1301   1.383   1_556  S
C1298      F1302   1.379       .  S
C1298      F1303   1.383       .  S
C1298      F1304   1.385       .  S
C1305      C1306   1.404       .  A
C1305      C1310   1.405       .  A
C1305      H1312   1.084       .  S
C1306      C1307   1.413       .  A
C1307      C1308   1.405       .  A
C1307      C1314   1.516       .  S
C1308      C1309   1.406       .  A
C1308      H1313   1.083       .  S
C1309      C1310   1.415       .  A
C1310      C1311   1.519       .  S
C1311      F1315   1.385       .  S
C1311      F1316   1.381       .  S
C1311      F1317   1.383       .  S
C1314      F1318   1.379       .  S
C1314      F1319   1.383       .  S
C1314      F1320   1.385       .  S
C1321      C1322   1.407       .  A
C1321      C1326   1.413       .  A
C1321      H1328   1.083       .  S
C1322      C1323   1.413       .  A
C1323      C1324   1.404       .  A
C1323      C1330   1.525       .  S
C1324      C1325   1.402       .  A
C1324      H1329   1.068       .  S
C1325      C1326   1.419       .  A
C1326      C1327   1.504       .  S
C1327      F1331   1.385       .  S
C1327      F1332   1.381       .  S
C1327      F1333   1.378       .  S
C1330      F1334   1.383       .  S
C1330      F1335   1.376       .  S
C1330      F1336   1.379       .  S
C1337      C1338   1.406   1_556  A
C1337      C1342   1.407       .  A
C1337      H1344   1.077       .  S
C1338      C1339   1.423       .  A
C1339      C1340   1.415       .  A
C1339      C1346   1.518       .  S
C1340      C1341   1.410       .  A
C1340      H1345   1.084       .  S
C1341      C1342   1.430   1_554  A
C1342      C1343   1.525       .  S
C1343      F1347   1.385       .  S
C1343      F1348   1.384       .  S
C1343      F1349   1.380       .  S
C1346      F1350   1.382       .  S
C1346      F1351   1.383       .  S
C1346      F1352   1.384       .  S
C1353      C1354   1.402   1_565  A
C1353      C1358   1.405       .  A
C1353      H1360   1.084       .  S
C1354      C1355   1.422       .  A
C1355      C1356   1.402   1_545  A
C1355      C1362   1.523       .  S
C1356      C1357   1.401       .  A
C1356      H1361   1.084       .  S
C1357      C1358   1.421       .  A
C1358      C1359   1.520       .  S
C1359      F1363   1.384       .  S
C1359      F1364   1.383       .  S
C1359      F1365   1.383       .  S
C1362      F1366   1.383       .  S
C1362      F1367   1.382       .  S
C1362      F1368   1.385       .  S
C1369      C1370   1.402       .  A
C1369      C1374   1.402       .  A
C1369      H1376   1.072       .  S
C1370      C1371   1.422       .  A
C1371      C1372   1.413       .  A
C1371      C1378   1.518       .  S
C1372      C1373   1.408       .  A
C1372      H1377   1.078       .  S
C1373      C1374   1.427       .  A
C1374      C1375   1.524       .  S
C1375      F1379   1.385       .  S
C1375      F1380   1.380       .  S
C1375      F1381   1.383       .  S
C1378      F1382   1.383       .  S
C1378      F1383   1.382       .  S
C1378      F1384   1.384       .  S
C1385      C1386   1.408       .  A
C1385      C1390   1.406       .  A
C1385      H1392   1.080       .  S
C1386      C1387   1.423       .  A
C1387      C1388   1.417       .  A
C1387      C1394   1.520       .  S
C1388      C1389   1.414       .  A
C1388      H1393   1.082       .  S
C1389      C1390   1.428       .  A
C1390      C1391   1.519       .  S
C1391      F1395   1.385       .  S
C1391      F1396   1.375       .  S
C1391      F1397   1.381       .  S
C1394      F1398   1.383       .  S
C1394      F1399   1.383       .  S
C1394      F1400   1.385       .  S
C1401      C1402   1.407       .  A
C1401      C1406   1.421       .  A
C1401      H1408   1.083       .  S
C1402      C1403   1.414       .  A
C1403      C1404   1.397       .  A
C1403      C1410   1.495       .  S
C1404      C1405   1.390       .  A
C1404      H1409   1.084       .  S
C1405      C1406   1.421       .  A
C1406      C1407   1.516       .  S
C1407      F1411   1.381       .  S
C1407      F1412   1.383       .  S
C1407      F1413   1.381       .  S
C1410      F1414   1.369       .  S
C1410      F1415   1.378       .  S
C1410      F1416   1.386       .  S
C1417      C1418   1.398       .  A
C1417      C1422   1.401       .  A
C1417      H1424   1.084       .  S
C1418      C1419   1.420       .  A
C1419      C1420   1.406       .  A
C1419      C1426   1.517       .  S
C1420      C1421   1.397       .  A
C1420      H1425   1.084       .  S
C1421      C1422   1.414       .  A
C1422      C1423   1.512       .  S
C1423      F1427   1.384       .  S
C1423      F1428   1.379       .  S
C1423      F1429   1.381       .  S
C1426      F1430   1.377       .  S
C1426      F1431   1.382       .  S
C1426      F1432   1.385       .  S
C1433      C1434   1.401       .  A
C1433      C1438   1.403       .  A
C1433      H1440   1.083       .  S
C1434      C1435   1.420       .  A
C1435      C1436   1.411       .  A
C1435      C1442   1.518       .  S
C1436      C1437   1.408       .  A
C1436      H1441   1.084       .  S
C1437      C1438   1.425       .  A
C1438      C1439   1.522       .  S
C1439      F1443   1.385       .  S
C1439      F1444   1.381       .  S
C1439      F1445   1.380       .  S
C1442      F1446   1.383       .  S
C1442      F1447   1.382       .  S
C1442      F1448   1.384       .  S
C1449      C1450   1.397       .  A
C1449      C1454   1.403       .  A
C1449      H1456   1.085       .  S
C1450      C1451   1.411       .  A
C1451      C1452   1.411       .  A
C1451      C1458   1.515       .  S
C1452      C1453   1.408       .  A
C1452      H1457   1.084       .  S
C1453      C1454   1.423       .  A
C1454      C1455   1.515       .  S
C1455      F1459   1.384       .  S
C1455      F1460   1.383       .  S
C1455      F1461   1.376       .  S
C1458      F1462   1.383       .  S
C1458      F1463   1.383       .  S
C1458      F1464   1.382       .  S
C1465      C1466   1.400       .  A
C1465      C1470   1.406   1_655  A
C1465      H1472   1.085       .  S
C1466      C1467   1.411   1_655  A
C1467      C1468   1.405       .  A
C1467      C1474   1.519       .  S
C1468      C1469   1.406       .  A
C1468      H1473   1.084       .  S
C1469      C1470   1.423       .  A
C1470      C1471   1.518       .  S
C1471      F1475   1.382       .  S
C1471      F1476   1.377       .  S
C1471      F1477   1.383       .  S
C1474      F1478   1.382   1_455  S
C1474      F1479   1.383       .  S
C1474      F1480   1.385       .  S
C1481      C1482   1.408       .  A
C1481      C1486   1.404       .  A
C1481      H1488   1.079       .  S
C1482      C1483   1.421       .  A
C1483      C1484   1.407       .  A
C1483      C1490   1.518       .  S
C1484      C1485   1.408       .  A
C1484      H1489   1.079       .  S
C1485      C1486   1.425       .  A
C1486      C1487   1.521       .  S
C1487      F1491   1.385       .  S
C1487      F1492   1.375       .  S
C1487      F1493   1.383       .  S
C1490      F1494   1.383       .  S
C1490      F1495   1.383       .  S
C1490      F1496   1.385       .  S
C1497      C1498   1.406       .  A
C1497      C1502   1.402       .  A
C1497      H1504   1.082       .  S
C1498      C1499   1.419       .  A
C1499      C1500   1.409       .  A
C1499      C1506   1.514       .  S
C1500      C1501   1.403       .  A
C1500      H1505   1.085       .  S
C1501      C1502   1.417       .  A
C1502      C1503   1.515       .  S
C1503      F1507   1.385       .  S
C1503      F1508   1.375       .  S
C1503      F1509   1.383       .  S
C1506      F1510   1.381       .  S
C1506      F1511   1.383       .  S
C1506      F1512   1.384       .  S
C1513      C1514   1.401       .  A
C1513      C1518   1.402       .  A
C1513      H1520   1.085       .  S
C1514      C1515   1.414       .  A
C1515      C1516   1.403       .  A
C1515      C1522   1.521       .  S
C1516      C1517   1.407       .  A
C1516      H1521   1.083       .  S
C1517      C1518   1.420       .  A
C1518      C1519   1.520       .  S
C1519      F1523   1.385       .  S
C1519      F1524   1.383       .  S
C1519      F1525   1.383       .  S
C1522      F1526   1.383       .  S
C1522      F1527   1.382       .  S
C1522      F1528   1.385       .  S
C1529      C1530   1.387       .  A
C1529      C1534   1.398       .  A
C1529      H1536   1.087       .  S
C1530      C1531   1.418       .  A
C1531      C1532   1.422       .  A
C1531      C1538   1.514       .  S
C1532      C1533   1.411       .  A
C1532      H1537   1.083       .  S
C1533      C1534   1.418       .  A
C1534      C1535   1.497       .  S
C1535      F1539   1.376       .  S
C1535      F1540   1.375       .  S
C1535      F1541   1.385       .  S
C1538      F1542   1.383       .  S
C1538      F1543   1.382       .  S
C1538      F1544   1.384       .  S
C1545      C1546   1.407       .  A
C1545      C1550   1.410       .  A
C1545      H1552   1.083       .  S
C1546      C1547   1.417       .  A
C1547      C1548   1.411       .  A
C1547      C1554   1.518   1_565  S
C1548      C1549   1.407       .  A
C1548      H1553   1.084   1_565  S
C1549      C1550   1.417       .  A
C1550      C1551   1.520       .  S
C1551      F1555   1.385       .  S
C1551      F1556   1.382       .  S
C1551      F1557   1.383       .  S
C1554      F1558   1.383   1_545  S
C1554      F1559   1.381       .  S
C1554      F1560   1.385       .  S
C1561      C1562   1.409       .  A
C1561      C1566   1.416   1_655  A
C1561      H1568   1.083       .  S
C1562      C1563   1.424       .  A
C1563      C1564   1.401       .  A
C1563      C1570   1.517       .  S
C1564      C1565   1.398   1_655  A
C1564      H1569   1.080   1_655  S
C1565      C1566   1.417       .  A
C1566      C1567   1.517       .  S
C1567      F1571   1.385       .  S
C1567      F1572   1.381       .  S
C1567      F1573   1.383       .  S
C1570      F1574   1.375       .  S
C1570      F1575   1.383       .  S
C1570      F1576   1.385       .  S
C1577      C1578   1.409       .  A
C1577      C1582   1.413       .  A
C1577      H1584   1.083       .  S
C1578      C1579   1.424       .  A
C1579      C1580   1.405       .  A
C1579      C1586   1.520       .  S
C1580      C1581   1.399       .  A
C1580      H1585   1.083       .  S
C1581      C1582   1.416       .  A
C1582      C1583   1.516       .  S
C1583      F1587   1.384       .  S
C1583      F1588   1.382       .  S
C1583      F1589   1.383       .  S
C1586      F1590   1.383       .  S
C1586      F1591   1.379       .  S
C1586      F1592   1.380       .  S
C1593      C1594   1.403       .  A
C1593      C1598   1.407       .  A
C1593      H1600   1.083       .  S
C1594      C1595   1.421       .  A
C1595      C1596   1.408       .  A
C1595      C1602   1.521       .  S
C1596      C1597   1.404       .  A
C1596      H1601   1.083       .  S
C1597      C1598   1.423       .  A
C1598      C1599   1.523       .  S
C1599      F1603   1.385       .  S
C1599      F1604   1.381       .  S
C1599      F1605   1.383       .  S
C1602      F1606   1.383       .  S
C1602      F1607   1.381       .  S
C1602      F1608   1.385       .  S
C1609      C1610   1.402       .  A
C1609      C1614   1.410       .  A
C1609      H1616   1.084       .  S
C1610      C1611   1.412       .  A
C1611      C1612   1.404       .  A
C1611      C1618   1.519       .  S
C1612      C1613   1.407       .  A
C1612      H1617   1.083       .  S
C1613      C1614   1.421       .  A
C1614      C1615   1.519       .  S
C1615      F1619   1.381       .  S
C1615      F1620   1.380       .  S
C1615      F1621   1.383       .  S
C1618      F1622   1.383       .  S
C1618      F1623   1.382       .  S
C1618      F1624   1.384       .  S
C1625      C1626   1.409       .  A
C1625      C1630   1.410       .  A
C1625      H1632   1.081   1_565  S
C1626      C1627   1.431       .  A
C1627      C1628   1.407       .  A
C1627      C1634   1.523       .  S
C1628      C1629   1.402       .  A
C1628      H1633   1.083       .  S
C1629      C1630   1.423       .  A
C1630      C1631   1.519       .  S
C1631      F1635   1.385       .  S
C1631      F1636   1.377       .  S
C1631      F1637   1.383       .  S
C1634      F1638   1.382       .  S
C1634      F1639   1.380       .  S
C1634      F1640   1.381       .  S
C1641      C1642   1.402       .  A
C1641      C1646   1.407       .  A
C1641      H1648   1.084       .  S
C1642      C1643   1.411       .  A
C1643      C1644   1.403       .  A
C1643      C1650   1.514       .  S
C1644      C1645   1.405       .  A
C1644      H1649   1.083       .  S
C1645      C1646   1.422       .  A
C1646      C1647   1.521       .  S
C1647      F1651   1.385       .  S
C1647      F1652   1.383       .  S
C1647      F1653   1.380       .  S
C1650      F1654   1.382   1_545  S
C1650      F1655   1.380   1_545  S
C1650      F1656   1.384   1_545  S
C1657      C1658   1.397       .  A
C1657      C1662   1.399       .  A
C1657      H1664   1.084       .  S
C1658      C1659   1.413       .  A
C1659      C1660   1.411       .  A
C1659      C1666   1.515       .  S
C1660      C1661   1.406       .  A
C1660      H1665   1.083       .  S
C1661      C1662   1.417       .  A
C1662      C1663   1.519       .  S
C1663      F1667   1.383       .  S
C1663      F1668   1.383       .  S
C1663      F1669   1.380       .  S
C1666      F1670   1.383       .  S
C1666      F1671   1.382       .  S
C1666      F1672   1.384       .  S
C1673      C1674   1.400       .  A
C1673      C1678   1.404       .  A
C1673      H1680   1.083       .  S
C1674      C1675   1.416       .  A
C1675      C1676   1.405       .  A
C1675      C1682   1.519       .  S
C1676      C1677   1.402       .  A
C1676      H1681   1.083       .  S
C1677      C1678   1.419       .  A
C1678      C1679   1.521       .  S
C1679      F1683   1.385       .  S
C1679      F1684   1.381       .  S
C1679      F1685   1.381       .  S
C1682      F1686   1.381       .  S
C1682      F1687   1.381       .  S
C1682      F1688   1.384       .  S
C1689      C1690   1.404       .  A
C1689      C1694   1.409   1_565  A
C1689      H1696   1.083       .  S
C1690      C1691   1.413   1_565  A
C1691      C1692   1.404       .  A
C1691      C1698   1.521       .  S
C1692      C1693   1.402       .  A
C1692      H1697   1.079       .  S
C1693      C1694   1.416       .  A
C1694      C1695   1.518       .  S
C1695      F1699   1.385   1_545  S
C1695      F1700   1.382       .  S
C1695      F1701   1.382       .  S
C1698      F1702   1.382   1_545  S
C1698      F1703   1.381   1_545  S
C1698      F1704   1.379       .  S
C1705      C1706   1.409       .  A
C1705      C1710   1.411       .  A
C1705      H1712   1.082       .  S
C1706      C1707   1.418       .  A
C1707      C1708   1.399       .  A
C1707      C1714   1.526       .  S
C1708      C1709   1.408       .  A
C1708      H1713   1.077       .  S
C1709      C1710   1.422       .  A
C1710      C1711   1.521       .  S
C1711      F1715   1.385       .  S
C1711      F1716   1.383       .  S
C1711      F1717   1.384       .  S
C1714      F1718   1.383       .  S
C1714      F1719   1.382       .  S
C1714      F1720   1.383       .  S
C1721      C1722   1.414       .  A
C1721      C1726   1.406       .  A
C1721      H1728   1.081       .  S
C1722      C1723   1.426   1_455  A
C1723      C1724   1.407       .  A
C1723      C1730   1.521       .  S
C1724      C1725   1.407   1_655  A
C1724      H1729   1.084       .  S
C1725      C1726   1.418       .  A
C1726      C1727   1.522       .  S
C1727      F1731   1.385       .  S
C1727      F1732   1.383       .  S
C1727      F1733   1.378       .  S
C1730      F1734   1.383       .  S
C1730      F1735   1.382       .  S
C1730      F1736   1.383       .  S
C1737      C1738   1.407       .  A
C1737      C1742   1.400       .  A
C1737      H1744   1.081       .  S
C1738      C1739   1.419       .  A
C1739      C1740   1.410       .  A
C1739      C1746   1.519       .  S
C1740      C1741   1.407       .  A
C1740      H1745   1.077       .  S
C1741      C1742   1.421       .  A
C1742      C1743   1.523       .  S
C1743      F1747   1.385       .  S
C1743      F1748   1.383       .  S
C1743      F1749   1.378       .  S
C1746      F1750   1.382       .  S
C1746      F1751   1.383       .  S
C1746      F1752   1.383       .  S
C1753      C1754   1.397       .  A
C1753      C1758   1.398       .  A
C1753      H1760   1.085       .  S
C1754      C1755   1.414       .  A
C1755      C1756   1.405       .  A
C1755      C1762   1.517       .  S
C1756      C1757   1.402       .  A
C1756      H1761   1.083       .  S
C1757      C1758   1.419       .  A
C1758      C1759   1.520       .  S
C1759      F1763   1.384       .  S
C1759      F1764   1.379       .  S
C1759      F1765   1.383       .  S
C1762      F1766   1.383       .  S
C1762      F1767   1.382       .  S
C1762      F1768   1.384       .  S
C1769      C1770   1.404       .  A
C1769      C1774   1.407       .  A
C1769      H1776   1.084       .  S
C1770      C1771   1.428       .  A
C1771      C1772   1.404       .  A
C1771      C1778   1.522       .  S
C1772      C1773   1.404       .  A
C1772      H1777   1.080       .  S
C1773      C1774   1.429       .  A
C1774      C1775   1.523       .  S
C1775      F1779   1.385       .  S
C1775      F1780   1.382       .  S
C1775      F1781   1.383       .  S
C1778      F1782   1.383       .  S
C1778      F1783   1.375       .  S
C1778      F1784   1.385       .  S
C1785      C1786   1.405       .  A
C1785      C1790   1.408       .  A
C1785      H1792   1.083       .  S
C1786      C1787   1.421       .  A
C1787      C1788   1.411       .  A
C1787      C1794   1.519       .  S
C1788      C1789   1.404       .  A
C1788      H1793   1.083       .  S
C1789      C1790   1.419       .  A
C1790      C1791   1.521       .  S
C1791      F1795   1.384       .  S
C1791      F1796   1.380       .  S
C1791      F1797   1.383       .  S
C1794      F1798   1.383       .  S
C1794      F1799   1.383       .  S
C1794      F1800   1.385       .  S
C1801      C1802   1.404       .  A
C1801      C1806   1.411       .  A
C1801      H1808   1.083       .  S
C1802      C1803   1.422       .  A
C1803      C1804   1.409       .  A
C1803      C1810   1.520       .  S
C1804      C1805   1.402       .  A
C1804      H1809   1.083       .  S
C1805      C1806   1.419       .  A
C1806      C1807   1.520       .  S
C1807      F1811   1.385       .  S
C1807      F1812   1.383       .  S
C1807      F1813   1.381       .  S
C1810      F1814   1.382       .  S
C1810      F1815   1.383       .  S
C1810      F1816   1.385       .  S
C1817      C1818   1.405       .  A
C1817      C1822   1.410       .  A
C1817      H1824   1.082   1_554  S
C1818      C1819   1.426       .  A
C1819      C1820   1.405       .  A
C1819      C1826   1.524       .  S
C1820      C1821   1.403       .  A
C1820      H1825   1.085       .  S
C1821      C1822   1.425       .  A
C1822      C1823   1.520   1_554  S
C1823      F1827   1.385       .  S
C1823      F1828   1.379   1_556  S
C1823      F1829   1.383       .  S
C1826      F1830   1.383       .  S
C1826      F1831   1.382   1_554  S
C1826      F1832   1.385       .  S
C1833      C1834   1.404       .  A
C1833      C1838   1.404       .  A
C1833      H1840   1.084   1_554  S
C1834      C1835   1.411       .  A
C1835      C1836   1.403       .  A
C1835      C1842   1.516       .  S
C1836      C1837   1.404       .  A
C1836      H1841   1.084       .  S
C1837      C1838   1.411       .  A
C1838      C1839   1.516       .  S
C1839      F1843   1.385   1_554  S
C1839      F1844   1.383       .  S
C1839      F1845   1.382   1_554  S
C1842      F1846   1.382       .  S
C1842      F1847   1.383       .  S
C1842      F1848   1.385       .  S
C1849      C1850   1.408       .  A
C1849      C1854   1.408       .  A
C1849      H1856   1.083       .  S
C1850      C1851   1.426       .  A
C1851      C1852   1.402       .  A
C1851      C1858   1.519       .  S
C1852      C1853   1.401       .  A
C1852      H1857   1.083       .  S
C1853      C1854   1.419       .  A
C1854      C1855   1.519       .  S
C1855      F1859   1.383       .  S
C1855      F1860   1.382       .  S
C1855      F1861   1.383       .  S
C1858      F1862   1.384       .  S
C1858      F1863   1.380       .  S
C1858      F1864   1.385       .  S
C1865      C1866   1.390       .  A
C1865      C1870   1.399       .  A
C1865      H1872   1.084       .  S
C1866      C1867   1.412   1_455  A
C1867      C1868   1.413   1_655  A
C1867      C1874   1.515       .  S
C1868      C1869   1.407       .  A
C1868      H1873   1.081   1_455  S
C1869      C1870   1.419       .  A
C1870      C1871   1.491       .  S
C1871      F1875   1.385       .  S
C1871      F1876   1.380       .  S
C1871      F1877   1.381       .  S
C1874      F1878   1.383       .  S
C1874      F1879   1.383       .  S
C1874      F1880   1.384       .  S
C1881      C1882   1.404       .  A
C1881      C1886   1.409       .  A
C1881      H1888   1.083       .  S
C1882      C1883   1.414       .  A
C1883      C1884   1.401       .  A
C1883      C1890   1.522   1_655  S
C1884      C1885   1.401       .  A
C1884      H1889   1.083       .  S
C1885      C1886   1.411       .  A
C1886      C1887   1.515       .  S
C1887      F1891   1.384       .  S
C1887      F1892   1.383       .  S
C1887      F1893   1.383       .  S
C1890      F1894   1.382   1_455  S
C1890      F1895   1.383       .  S
C1890      F1896   1.384       .  S
C1897      C1898   1.401       .  A
C1897      C1902   1.405       .  A
C1897      H1904   1.083       .  S
C1898      C1899   1.415       .  A
C1899      C1900   1.401       .  A
C1899      C1906   1.519       .  S
C1900      C1901   1.399       .  A
C1900      H1905   1.076       .  S
C1901      C1902   1.414       .  A
C1902      C1903   1.511       .  S
C1903      F1907   1.385       .  S
C1903      F1908   1.381       .  S
C1903      F1909   1.378       .  S
C1906      F1910   1.382       .  S
C1906      F1911   1.379       .  S
C1906      F1912   1.385       .  S
C1913      C1914   1.407   1_455  A
C1913      C1918   1.407       .  A
C1913      H1920   1.084       .  S
C1914      C1915   1.421       .  A
C1915      C1916   1.398       .  A
C1915      C1922   1.522       .  S
C1916      C1917   1.402   1_655  A
C1916      H1921   1.083       .  S
C1917      C1918   1.419       .  A
C1918      C1919   1.519       .  S
C1919      F1923   1.385       .  S
C1919      F1924   1.383       .  S
C1919      F1925   1.383       .  S
C1922      F1926   1.381       .  S
C1922      F1927   1.380       .  S
C1922      F1928   1.385       .  S
C1929      C1930   1.403       .  A
C1929      C1934   1.406       .  A
C1929      H1936   1.083       .  S
C1930      C1931   1.417       .  A
C1931      C1932   1.406       .  A
C1931      C1938   1.522       .  S
C1932      C1933   1.408       .  A
C1932      H1937   1.084       .  S
C1933      C1934   1.417       .  A
C1934      C1935   1.510       .  S
C1935      F1939   1.385       .  S
C1935      F1940   1.382       .  S
C1935      F1941   1.380       .  S
C1938      F1942   1.383       .  S
C1938      F1943   1.380       .  S
C1938      F1944   1.382       .  S
C1945      C1946   1.401       .  A
C1945      C1950   1.400       .  A
C1945      H1952   1.084       .  S
C1946      C1947   1.414       .  A
C1947      C1948   1.406       .  A
C1947      C1954   1.517       .  S
C1948      C1949   1.402       .  A
C1948      H1953   1.084       .  S
C1949      C1950   1.412       .  A
C1950      C1951   1.515       .  S
C1951      F1955   1.385       .  S
C1951      F1956   1.383       .  S
C1951      F1957   1.379       .  S
C1954      F1958   1.382       .  S
C1954      F1959   1.383       .  S
C1954      F1960   1.385       .  S
C1961      C1962   1.406       .  A
C1961      C1966   1.411       .  A
C1961      H1968   1.085       .  S
C1962      C1963   1.428       .  A
C1963      C1964   1.400       .  A
C1963      C1970   1.518       .  S
C1964      C1965   1.399       .  A
C1964      H1969   1.085       .  S
C1965      C1966   1.423       .  A
C1966      C1967   1.519       .  S
C1967      F1971   1.383       .  S
C1967      F1972   1.382       .  S
C1967      F1973   1.383       .  S
C1970      F1974   1.366       .  S
C1970      F1975   1.384       .  S
C1970      F1976   1.384       .  S
C1977      C1978   1.400       .  A
C1977      C1982   1.403       .  A
C1977      H1984   1.082       .  S
C1978      C1979   1.412       .  A
C1979      C1980   1.412   1_545  A
C1979      C1986   1.515       .  S
C1980      C1981   1.406       .  A
C1980      H1985   1.083       .  S
C1981      C1982   1.415   1_565  A
C1982      C1983   1.520   1_545  S
C1983      F1987   1.385   1_565  S
C1983      F1988   1.383       .  S
C1983      F1989   1.382       .  S
C1986      F1990   1.383       .  S
C1986      F1991   1.383       .  S
C1986      F1992   1.384   1_545  S
C1993      C1994   1.402       .  A
C1993      C1998   1.403       .  A
C1993      H2000   1.084       .  S
C1994      C1995   1.416       .  A
C1995      C1996   1.404       .  A
C1995      C2002   1.521       .  S
C1996      C1997   1.404       .  A
C1996      H2001   1.083       .  S
C1997      C1998   1.419       .  A
C1998      C1999   1.521       .  S
C1999      F2003   1.385       .  S
C1999      F2004   1.383       .  S
C1999      F2005   1.381       .  S
C2002      F2006   1.382       .  S
C2002      F2007   1.383       .  S
C2002      F2008   1.384       .  S
C2009      C2010   1.401       .  A
C2009      C2014   1.397       .  A
C2009      H2016   1.083       .  S
C2010      C2011   1.419       .  A
C2011      C2012   1.409       .  A
C2011      C2018   1.519       .  S
C2012      C2013   1.405       .  A
C2012      H2017   1.084       .  S
C2013      C2014   1.417       .  A
C2014      C2015   1.516       .  S
C2015      F2019   1.384       .  S
C2015      F2020   1.378       .  S
C2015      F2021   1.383       .  S
C2018      F2022   1.380       .  S
C2018      F2023   1.384       .  S
C2018      F2024   1.385       .  S
C2025      C2026   1.393   1_455  A
C2025      C2030   1.397       .  A
C2025      H2032   1.084       .  S
C2026      C2027   1.416       .  A
C2027      C2028   1.411       .  A
C2027      C2034   1.516       .  S
C2028      C2029   1.403       .  A
C2028      H2033   1.083       .  S
C2029      C2030   1.416   1_655  A
C2030      C2031   1.509       .  S
C2031      F2035   1.384       .  S
C2031      F2036   1.381       .  S
C2031      F2037   1.382   1_455  S
C2034      F2038   1.383       .  S
C2034      F2039   1.381       .  S
C2034      F2040   1.382       .  S
C2041      C2042   1.400       .  A
C2041      C2046   1.397       .  A
C2041      H2048   1.084       .  S
C2042      C2043   1.412       .  A
C2043      C2044   1.409       .  A
C2043      C2050   1.517   1_565  S
C2044      C2045   1.403       .  A
C2044      H2049   1.074       .  S
C2045      C2046   1.416       .  A
C2046      C2047   1.517       .  S
C2047      F2051   1.385       .  S
C2047      F2052   1.375       .  S
C2047      F2053   1.377       .  S
C2050      F2054   1.383       .  S
C2050      F2055   1.382       .  S
C2050      F2056   1.383       .  S
C2057      C2058   1.403       .  A
C2057      C2062   1.410       .  A
C2057      H2064   1.083       .  S
C2058      C2059   1.422       .  A
C2059      C2060   1.403       .  A
C2059      C2066   1.520       .  S
C2060      C2061   1.408       .  A
C2060      H2065   1.080       .  S
C2061      C2062   1.432       .  A
C2062      C2063   1.523       .  S
C2063      F2067   1.381       .  S
C2063      F2068   1.383       .  S
C2063      F2069   1.382       .  S
C2066      F2070   1.383       .  S
C2066      F2071   1.373       .  S
C2066      F2072   1.385       .  S
C2073      C2074   1.402       .  A
C2073      C2078   1.402       .  A
C2073      H2080   1.084       .  S
C2074      C2075   1.417       .  A
C2075      C2076   1.398       .  A
C2075      C2082   1.523       .  S
C2076      C2077   1.402       .  A
C2076      H2081   1.083       .  S
C2077      C2078   1.416       .  A
C2078      C2079   1.519       .  S
C2079      F2083   1.385       .  S
C2079      F2084   1.382       .  S
C2079      F2085   1.383       .  S
C2082      F2086   1.383       .  S
C2082      F2087   1.381       .  S
C2082      F2088   1.385       .  S
