geometry optimzed in LAMMPS
_audit_creation_date              2020-11-30 
_audit_creation_method            'lammps2cif' 
_symmetry_space_group_name_H-M    'P1' 
_symmetry_Int_Tables_number       1 
_symmetry_cell_setting            triclinic 
loop_ 
_symmetry_equiv_pos_as_xyz 
  x,y,z 
_cell_length_a                    30.50766064 
_cell_length_b                    30.441839056241083 
_cell_length_c                    26.85117349547033 
_cell_angle_alpha                 90.00985256154532 
_cell_angle_beta                  89.95853103823693 
_cell_angle_gamma                 119.96404247662481 
loop_ 
_atom_site_label 
_atom_site_type_symbol 
_atom_site_fract_x 
_atom_site_fract_y 
_atom_site_fract_z 
_atom_site_charge 
C1          C  0.33857257  0.67088016  0.99566137     0.45400
H2          H  0.34114149  0.67387874  0.95441396    -0.03600
C3          C  0.33205599  0.66367010  0.09234006     0.45400
H4          H  0.32940014  0.66127108  0.13362031    -0.03600
C5          C  0.38806661  0.68080582  0.02117106    -0.17300
C6          C  0.32481554  0.70808274  0.02029296    -0.17100
C7          C  0.29831813  0.61810674  0.01420128    -0.17500
C8          C  0.38434029  0.67736346  0.07225507    -0.17500
C9          C  0.32188726  0.70448126  0.07125939    -0.17000
C10         C  0.29432240  0.61445059  0.06538314    -0.17300
C11         C  0.66673406  0.33463823  0.01103989     0.45400
H12         H  0.66624918  0.33413443  0.05239964    -0.03600
C13         C  0.66754317  0.33409944  0.91409385     0.45400
H14         H  0.66859323  0.33415957  0.87273607    -0.03600
C15         C  0.67732277  0.29428370  0.98862272    -0.17300
C16         C  0.61623794  0.32405215  0.98733977    -0.17100
C17         C  0.70777566  0.38522503  0.98812150    -0.17500
C18         C  0.67782222  0.29438750  0.93761231    -0.17500
C19         C  0.61680338  0.32404286  0.93594481    -0.17000
C20         C  0.70727223  0.38461238  0.93677554    -0.17300
O21         O  0.02481079  0.93584105  0.28097798    -0.88400
C22         C  0.08952545  0.04188068  0.17097662     0.87600
Mg23       Mg  0.94726163  0.87634692  0.27879903     1.58100
O24         O  0.06079815  0.08628344  0.28004882    -0.88200
O25         O  0.07427476  0.99921011  0.32972375    -0.75500
C26         C  0.81660882  0.99034856  0.21587344     0.92700
O27         O  0.00073759  0.92186446  0.16391221    -0.75300
O28         O  0.81636560  0.94849492  0.21272483    -0.82800
Mg29       Mg  0.06912393  0.94600259  0.21537678     1.58000
C30         C  0.99000750  0.17331975  0.27029325     0.92600
O31         O  0.14194720  0.96678022  0.25877373    -0.81100
H32         H  0.06790290  0.09866182  0.35350120    -0.06400
C33         C  0.95725252  0.04401730  0.16813376     0.87500
O34         O  0.92437568  0.92350658  0.32804862    -0.75600
O35         O  0.08756509  0.02377418  0.21266762    -0.88300
O36         O  0.02968900  0.17311911  0.25532809    -0.81200
C37         C  0.17502276  0.18105725  0.22126387     0.92700
C38         C  0.18123130  0.00559660  0.27580242     0.92500
Mg39       Mg  0.92877185  0.05079057  0.27527346     1.58000
O40         O  0.85593211  0.03117954  0.22958106    -0.81100
O41         O  0.99707419  0.07436048  0.32718347    -0.75300
O42         O  0.17501333  0.14080811  0.23454913    -0.81200
O43         O  0.04916762  0.86380392  0.21798367    -0.82900
O44         O  0.82701415  0.85709023  0.25720282    -0.81200
C45         C  0.04338130  0.08746808  0.32131776     0.87000
O46         O  0.91174402  0.97344776  0.27850196    -0.88300
O47         O  0.97414988  0.06122533  0.20990207    -0.88400
O48         O  0.92483917  0.99751320  0.16152541    -0.75500
Mg49       Mg  0.12059349  0.06804798  0.27901443     1.58000
O50         O  0.13430324  0.18280141  0.21724623    -0.82900
H51         H  0.02770800  0.92764153  0.35455629    -0.06600
O52         O  0.93773357  0.90995266  0.21191444    -0.88100
H53         H  0.92936211  0.89643420  0.13869127    -0.06400
H54         H  0.89999094  0.97089354  0.35196598    -0.06600
C55         C  0.95445367  0.90827557  0.17046136     0.87000
C56         C  0.04193159  0.95275167  0.32278256     0.87500
C57         C  0.91095613  0.95634607  0.32051143     0.87600
H58         H  0.97151369  0.06889710  0.13619741    -0.06600
O59         O  0.07653112  0.07507171  0.16387641    -0.75600
Mg60       Mg  0.87902535  0.92894035  0.21287430     1.58000
H61         H  0.10136173  0.02816134  0.13950851    -0.06600
C62         C  0.00730301  0.82252569  0.22245705     0.92600
O63         O  0.86476095  0.81401184  0.28072254    -0.82800
C64         C  0.82512924  0.81739973  0.27519043     0.92600
O65         O  0.18304786  0.04800155  0.28135948    -0.82800
Mg66       Mg  0.05183630  0.12042161  0.21372933     1.58200
O67         O  0.96662722  0.82162535  0.23563196    -0.81100
O68         O  0.94782002  0.13262802  0.27531687    -0.82800
C69         C  0.72003227  0.02973937  0.17828073     0.03000
C70         C  0.67575351  0.98852555  0.19827592    -0.13100
C71         C  0.67752457  0.94873458  0.22291064     0.00500
C72         C  0.72367313  0.94924947  0.22558177    -0.11600
C73         C  0.76847534  0.99010906  0.20698644     0.03000
C74         C  0.76658633  0.03055148  0.18351574    -0.11000
H75         H  0.64003181  0.98793704  0.19570329     0.08600
H76         H  0.72510125  0.91847506  0.24440678     0.06200
H77         H  0.80116901  0.06256564  0.16967263     0.06000
C78         C  0.27646314  0.96023729  0.27006339     0.03000
C79         C  0.31589688  0.99694640  0.29933663    -0.13100
C80         C  0.31109894  0.03570130  0.32262079     0.00500
C81         C  0.26638528  0.03772899  0.31632684    -0.11600
C82         C  0.22670522  0.00149265  0.28672706     0.03000
C83         C  0.23195237  0.96259954  0.26441160    -0.11000
H84         H  0.35073842  0.99595299  0.30336259     0.08600
H85         H  0.26311536  0.06818592  0.33349662     0.06200
H86         H  0.20166700  0.93452272  0.24150691     0.06000
C87         C  0.31068366  0.27401711  0.18240046     0.03000
C88         C  0.31681959  0.31861468  0.20452148    -0.13100
C89         C  0.27755347  0.31856457  0.23198849     0.00500
C90         C  0.23104346  0.27306854  0.23566568    -0.11600
C91         C  0.22386275  0.22821966  0.21348475     0.03000
C92         C  0.26398332  0.22868935  0.18711506    -0.11000
H93         H  0.35242285  0.35355736  0.19987135     0.08600
H94         H  0.20074989  0.27157808  0.25798746     0.06200
H95         H  0.25904772  0.19397036  0.17073817     0.06000
C96         C  0.95707279  0.27247785  0.31428489     0.03000
C97         C  0.95638727  0.22602782  0.30903794    -0.13100
C98         C  0.99258163  0.22257577  0.27926810     0.00500
C99         C  0.02971972  0.26605627  0.25487256    -0.11600
C100        C  0.03063670  0.31243810  0.25886521     0.03000
C101        C  0.99419807  0.31524769  0.28850504    -0.11000
H102        H  0.92812662  0.19265706  0.32847359     0.08600
H103        H  0.05670197  0.26324358  0.23075639     0.06200
H104        H  0.99469210  0.35096115  0.29123553     0.06000
C105        C  0.68372432  0.72913159  0.27257470     0.03000
C106        C  0.67881255  0.68762596  0.29986326    -0.13100
C107        C  0.72105104  0.68870717  0.32253752     0.00500
C108        C  0.76923718  0.73205673  0.31542670    -0.11600
C109        C  0.77476965  0.77343072  0.28699869     0.03000
C110        C  0.73160503  0.77196427  0.26705820    -0.11000
H111        H  0.64202324  0.65371766  0.30172172     0.08600
H112        H  0.80243163  0.73407153  0.33216763     0.06200
H113        H  0.73531707  0.80393817  0.24587773     0.06000
C114        C  0.04665053  0.72402084  0.23784655     0.03000
C115        C  0.04677614  0.77010881  0.23811267    -0.13100
C116        C  0.00735290  0.77430428  0.21621930     0.00500
C117        C  0.96838544  0.73227385  0.19120529    -0.11600
C118        C  0.96924163  0.68635501  0.18779171     0.03000
C119        C  0.00788660  0.68252031  0.21247978    -0.11000
H120        H  0.07693153  0.80267381  0.25695251     0.08600
H121        H  0.93857840  0.73596488  0.17333778     0.06200
H122        H  0.00686807  0.64646913  0.21329311     0.06000
C123        C  0.66775706  0.33320799  0.59260334     0.45400
H124        H  0.66969675  0.33510045  0.63392060    -0.03600
C125        C  0.66302321  0.33016503  0.49576946     0.45400
H126        H  0.66139819  0.32874439  0.45445064    -0.03600
C127        C  0.67533977  0.38237552  0.56889154    -0.17300
C128        C  0.70808764  0.32388120  0.56828435    -0.17100
C129        C  0.61660361  0.29163128  0.57256143    -0.17500
C130        C  0.67264337  0.38103780  0.51767417    -0.17500
C131        C  0.70516809  0.32171748  0.51707199    -0.17000
C132        C  0.61377636  0.28957348  0.52126387    -0.17300
C133        C  0.33806438  0.66823063  0.51533469     0.45400
H134        H  0.33937765  0.66962345  0.55666181    -0.03600
C135        C  0.33291132  0.66441243  0.41849536     0.45400
H136        H  0.33067927  0.66303769  0.37716542    -0.03600
C137        C  0.32496674  0.61614289  0.49360086    -0.17300
C138        C  0.29780181  0.67923027  0.49384078    -0.17100
C139        C  0.38793818  0.70712412  0.48942631    -0.17500
C140        C  0.32287699  0.61449945  0.44237990    -0.17500
C141        C  0.29535556  0.67701110  0.44296005    -0.17000
C142        C  0.38478643  0.70447056  0.43806126    -0.17300
O143        O  0.91252669  0.93885235  0.70491774    -0.88400
C144        C  0.95589532  0.04537579  0.81466496     0.87600
Mg145      Mg  0.92949763  0.87840006  0.70852750     1.58100
O146        O  0.02764913  0.08866717  0.70470317    -0.88200
O147        O  0.92589356  0.00233224  0.65653233    -0.75500
C148        C  0.17350878  0.99030946  0.77171813     0.92700
O149        O  0.92262228  0.92578872  0.82221006    -0.75300
O150        O  0.13311321  0.94776751  0.77735722    -0.82800
Mg151      Mg  0.87873223  0.95041022  0.77048350     1.58000
C152        C  0.18355574  0.17169652  0.71319982     0.92600
O153        O  0.82715252  0.97141669  0.72481802    -0.81100
H154        H  0.03116926  0.09862071  0.63091620    -0.06400
C155        C  0.08759065  0.04446668  0.81626814     0.87500
O156        O  0.99909510  0.92192190  0.65827408    -0.75600
O157        O  0.93955671  0.02771380  0.77289338    -0.88300
O158        O  0.14445752  0.17364151  0.72655930    -0.81200
C159        C  0.01278015  0.18580131  0.76625828     0.92700
C160        C  0.82854702  0.01252866  0.71223662     0.92500
Mg161      Mg  0.12088376  0.04887768  0.70892727     1.58000
O162        O  0.17262607  0.02846812  0.75331824    -0.81100
O163        O  0.07634942  0.07256958  0.65711076    -0.75300
O164        O  0.97341272  0.14656906  0.74976622    -0.81200
O165        O  0.81470927  0.86844121  0.77160175    -0.82900
O166        O  0.03095649  0.85584978  0.73013547    -0.81200
C167        C  0.04473467  0.08773889  0.66317566     0.87000
O168        O  0.06163699  0.97189233  0.70728401    -0.88300
O169        O  0.08724991  0.06069411  0.77412478    -0.88400
O170        O  0.07346692  0.99810225  0.82405918    -0.75500
Mg171      Mg  0.95096063  0.07216894  0.70706465     1.58000
O172        O  0.05453612  0.18653046  0.77182858    -0.82900
H173        H  0.90045814  0.93067853  0.63144934    -0.06600
O174        O  0.97293890  0.91177090  0.77485415    -0.88100
H175        H  0.96771088  0.89958127  0.84833685    -0.06400
H176        H  0.07122571  0.96670851  0.63430059    -0.06600
C177        C  0.95476105  0.91126648  0.81618553     0.87000
C178        C  0.91196558  0.95581688  0.66322492     0.87500
C179        C  0.04548715  0.95380472  0.66561430     0.87600
H180        H  0.09866803  0.07014308  0.84759193    -0.06600
O181        O  0.00222495  0.07770672  0.82185474    -0.75600
Mg182      Mg  0.05045104  0.92868329  0.77419228     1.58000
H183        H  0.93037280  0.03186596  0.84613918    -0.06600
C184        C  0.81569342  0.82736155  0.76661032     0.92600
O185        O  0.94852102  0.81528859  0.71169615    -0.82800
C186        C  0.99064129  0.81633941  0.71601636     0.92600
O187        O  0.86980380  0.05450908  0.70914405    -0.82800
Mg188      Mg  0.07155825  0.12193557  0.77113546     1.58200
O189        O  0.85496625  0.82697780  0.75067440    -0.81100
O190        O  0.18365379  0.13010948  0.70976528    -0.82800
C191        C  0.27417770  0.96555887  0.82762146     0.03000
C192        C  0.22672785  0.95977550  0.81530304    -0.13100
C193        C  0.22333913  0.99597373  0.78537184     0.00500
C194        C  0.26816024  0.03740681  0.76674601    -0.11600
C195        C  0.31577467  0.04294219  0.77735464     0.03000
C196        C  0.31832019  0.00736313  0.80884208    -0.11000
H197        H  0.19262428  0.92742701  0.82951309     0.08600
H198        H  0.26584483  0.06422514  0.74193513     0.06200
H199        H  0.35476901  0.01135232  0.81775377     0.06000
C200        C  0.72745185  0.04817814  0.72702250     0.03000
C201        C  0.68660473  0.00793276  0.70233889    -0.13100
C202        C  0.69240147  0.97017317  0.67830401     0.00500
C203        C  0.73945075  0.97219136  0.68013667    -0.11600
C204        C  0.78059418  0.01232096  0.70478177     0.03000
C205        C  0.77461600  0.05074595  0.72698980    -0.11000
H206        H  0.65023607  0.00617249  0.70154218     0.08600
H207        H  0.74379346  0.94230130  0.66311616     0.06200
H208        H  0.80588604  0.08090095  0.74728834     0.06000
C209        C  0.96904516  0.28238747  0.76143323     0.03000
C210        C  0.97059836  0.23743092  0.75600713    -0.13100
C211        C  0.01013120  0.23240412  0.77668101     0.00500
C212        C  0.04810426  0.27313914  0.80424349    -0.11600
C213        C  0.04671586  0.31848701  0.81099934     0.03000
C214        C  0.00680001  0.32243114  0.78917108    -0.11000
H215        H  0.94149528  0.20677704  0.73420373     0.08600
H216        H  0.07842916  0.26931042  0.82065218     0.06200
H217        H  0.00616010  0.35761122  0.79167291     0.06000
C218        C  0.32151569  0.26976780  0.72284376     0.03000
C219        C  0.27582684  0.22384684  0.72541412    -0.13100
C220        C  0.23146624  0.21924823  0.70503697     0.00500
C221        C  0.23312407  0.26092260  0.68069421    -0.11600
C222        C  0.27931191  0.30686256  0.67587412     0.03000
C223        C  0.32329246  0.31076462  0.69730588    -0.11000
H224        H  0.27437448  0.19223003  0.74549714     0.08600
H225        H  0.19874984  0.25720209  0.66494791     0.06200
H226        H  0.35852428  0.34657743  0.69646129     0.06000
C227        C  0.03154385  0.72237835  0.67545601     0.03000
C228        C  0.99389957  0.67836902  0.69928997    -0.13100
C229        C  0.95566376  0.67939577  0.72756480     0.00500
C230        C  0.95454966  0.72477850  0.73078675    -0.11600
C231        C  0.99183015  0.76908746  0.70796947     0.03000
C232        C  0.03077880  0.76808787  0.68085719    -0.11000
H233        H  0.99477426  0.64332933  0.69640784     0.08600
H234        H  0.92603329  0.72651903  0.75343840     0.06200
H235        H  0.05967605  0.80248195  0.66328384     0.06000
C236        C  0.68622621  0.72859800  0.81582375     0.03000
C237        C  0.67973499  0.68508393  0.79108465    -0.13100
C238        C  0.71757478  0.68736769  0.75947385     0.00500
C239        C  0.76212428  0.73426697  0.75280899    -0.11600
C240        C  0.76938343  0.77823111  0.77720535     0.03000
C241        C  0.73120951  0.77505454  0.80901952    -0.11000
H242        H  0.64527723  0.64933108  0.79717294     0.08600
H243        H  0.79066202  0.73712289  0.72691754     0.06200
H244        H  0.73593045  0.80871876  0.82766960     0.06000
C245        C  0.25975162  0.48279313  0.54689942    -0.10900
C246        C  0.29676458  0.48544691  0.57978406     0.06200
C247        C  0.34136111  0.53210243  0.58667729    -0.09700
C248        C  0.34958666  0.57497157  0.55997974    -0.11300
C249        C  0.31369580  0.57188179  0.52552258    -0.01100
C250        C  0.26827364  0.52566534  0.51977745    -0.10200
C251        C  0.29098508  0.43909941  0.60391680     0.06200
H252        H  0.37036136  0.53503556  0.61195996     0.08200
H253        H  0.38505377  0.60979429  0.56447480     0.11600
H254        H  0.23997473  0.52255458  0.49344909     0.11900
H255        H  0.22523772  0.44713257  0.54075001     0.08200
C256        C  0.24771644  0.40694774  0.63188649    -0.10900
C257        C  0.24342899  0.36363688  0.65497088    -0.10200
C258        C  0.28208836  0.35143365  0.64989796    -0.01100
C259        C  0.32468687  0.38322236  0.62080930    -0.11300
C260        C  0.32923239  0.42667943  0.59845478    -0.09700
H261        H  0.21781360  0.41594160  0.63667793     0.08200
H262        H  0.21043484  0.34039042  0.67763197     0.11900
H263        H  0.35461877  0.37443048  0.61516230     0.11600
H264        H  0.36253123  0.45045479  0.57632774     0.08200
C265        C  0.09807668  0.67322103  0.59180019    -0.10900
C266        C  0.14919007  0.71050678  0.59746650     0.06200
C267        C  0.16111076  0.75366103  0.62630077    -0.09700
C268        C  0.12290198  0.75837742  0.65049319    -0.11300
C269        C  0.07194177  0.72010014  0.64626211    -0.01100
C270        C  0.05997564  0.67799101  0.61579072    -0.10200
C271        C  0.18966343  0.70368770  0.57393672     0.06200
H272        H  0.20013578  0.78298743  0.63149447     0.08200
H273        H  0.13342121  0.79109866  0.67394366     0.11600
H274        H  0.02101253  0.64841195  0.61079552     0.11900
H275        H  0.08752807  0.64018050  0.56881557     0.08200
C276        C  0.18671960  0.65601316  0.57466485    -0.10900
C277        C  0.22329833  0.64871863  0.55052260    -0.10200
C278        C  0.26326417  0.68880637  0.52493881    -0.01100
C279        C  0.26746047  0.73685748  0.52558027    -0.11300
C280        C  0.23102345  0.74428973  0.54987504    -0.09700
H281        H  0.15585414  0.62421882  0.59365263     0.08200
H282        H  0.21954325  0.61139902  0.55042327     0.11900
H283        H  0.29839901  0.76836768  0.50638328     0.11600
H284        H  0.23436074  0.78138864  0.54854276     0.08200
C285        C  0.48862585  0.76713711  0.59006912    -0.10900
C286        C  0.51864631  0.81667770  0.57206098     0.06200
C287        C  0.50476013  0.83075460  0.52766368    -0.09700
C288        C  0.46178802  0.79575065  0.50150237    -0.11300
C289        C  0.43287014  0.74530703  0.51810551    -0.01100
C290        C  0.44627608  0.73180082  0.56326783    -0.10200
C291        C  0.56377917  0.85406001  0.59996378     0.06200
H292        H  0.52665304  0.86918584  0.51377387     0.08200
H293        H  0.45105350  0.80850088  0.46852668     0.11600
H294        H  0.42440431  0.69387674  0.57785382     0.11900
H295        H  0.49842003  0.75559991  0.62451678     0.08200
C296        C  0.55971100  0.86383969  0.65033087    -0.10900
C297        C  0.60174756  0.90114097  0.67597711    -0.10200
C298        C  0.64880967  0.92853741  0.65198636    -0.01100
C299        C  0.65323527  0.91768670  0.60202787    -0.11300
C300        C  0.61090494  0.88111204  0.57605696    -0.09700
H301        H  0.52367588  0.84354651  0.66939914     0.08200
H302        H  0.59752685  0.90883205  0.71453916     0.11900
H303        H  0.68908041  0.93858325  0.58273956     0.08400
H304        H  0.61485341  0.87393888  0.53726100     0.08200
C305        C  0.86567891  0.31374841  0.73366694    -0.10900
C306        C  0.85790080  0.30293701  0.68249423     0.06200
C307        C  0.88615449  0.28465450  0.65786253    -0.09700
C308        C  0.92155396  0.27723945  0.68385718    -0.11300
C309        C  0.93003164  0.28877302  0.73483069    -0.01100
C310        C  0.90188693  0.30724029  0.75954077    -0.10200
C311        C  0.82032906  0.31040883  0.65457218     0.06200
H312        H  0.88047623  0.27569728  0.61851627     0.08200
H313        H  0.94304592  0.26332128  0.66391049     0.11600
H314        H  0.90767795  0.31622562  0.79886838     0.11900
H315        H  0.84428488  0.32793322  0.75336717     0.08200
C316        C  0.77037678  0.28897356  0.67171361    -0.10900
C317        C  0.73429270  0.29380526  0.64385903    -0.10200
C318        C  0.74733886  0.32019691  0.59837798    -0.01100
C319        C  0.79813349  0.34388661  0.58271738    -0.11300
C320        C  0.83401604  0.33826250  0.61003091    -0.09700
H321        H  0.75900352  0.26746087  0.70608528     0.08200
H322        H  0.69607267  0.27624213  0.65777847     0.11900
H323        H  0.81036469  0.36704102  0.54950033     0.11600
H324        H  0.87265227  0.35609792  0.59665668     0.08200
C325        C  0.41214901  0.16893589  0.71864589    -0.10900
C326        C  0.44835101  0.15753512  0.69965778     0.06200
C327        C  0.44097566  0.10863777  0.70786253    -0.09700
C328        C  0.39870686  0.07221789  0.73389194    -0.11300
C329        C  0.36229276  0.08338463  0.75247820    -0.01100
C330        C  0.36966449  0.13237053  0.74474589    -0.10200
C331        C  0.49271896  0.19534601  0.66990460     0.06200
H332        H  0.46705637  0.09772963  0.69275790     0.08200
H333        H  0.39372600  0.03460815  0.73798620     0.11600
H334        H  0.34260519  0.14247281  0.75886949     0.11900
H335        H  0.41659221  0.20609685  0.71333989     0.08200
C336        C  0.48845865  0.22905805  0.63691562    -0.10900
C337        C  0.52893027  0.26105645  0.60582432    -0.10200
C338        C  0.57431712  0.25987969  0.60699667    -0.01100
C339        C  0.57929534  0.22770910  0.64088946    -0.11300
C340        C  0.53918709  0.19605837  0.67216719    -0.09700
H341        H  0.45333632  0.22953742  0.63379332     0.08200
H342        H  0.52455559  0.28604683  0.58015846     0.11900
H343        H  0.61356459  0.22561119  0.64192574     0.11600
H344        H  0.54447498  0.17159222  0.69771111     0.08200
C345        C  0.74731866  0.59270853  0.69816478    -0.10900
C346        C  0.69974801  0.55534399  0.68096912     0.06200
C347        C  0.65757508  0.56122724  0.69003629    -0.09700
C348        C  0.66308299  0.60387110  0.71548801    -0.11300
C349        C  0.71083528  0.64129975  0.73294266    -0.01100
C350        C  0.75270012  0.63483768  0.72417824    -0.10200
C351        C  0.69449253  0.51065222  0.65343788     0.06200
H352        H  0.62050062  0.53336417  0.67651679     0.08200
H353        H  0.63007803  0.60791174  0.72059259     0.11600
H354        H  0.78970361  0.66228672  0.73791209     0.11900
H355        H  0.78029980  0.58886448  0.69205151     0.08200
C356        C  0.73032881  0.51654852  0.61714104    -0.10900
C357        C  0.72505122  0.47468046  0.59064068    -0.10200
C358        C  0.68373222  0.42622561  0.59976709    -0.01100
C359        C  0.64875343  0.41989285  0.63694797    -0.11300
C360        C  0.65387936  0.46180057  0.66336033    -0.09700
H361        H  0.76185661  0.55372434  0.60847566     0.08200
H362        H  0.75260684  0.48018033  0.56227525     0.11900
H363        H  0.61666731  0.38270431  0.64450564     0.11600
H364        H  0.62617245  0.45602101  0.69164046     0.08200
C365        C  0.18231022  0.64878407  0.36419719    -0.10900
C366        C  0.19165391  0.69786078  0.35336800     0.06200
C367        C  0.23518859  0.74000191  0.37246701    -0.09700
C368        C  0.26902673  0.73317008  0.40178633    -0.11300
C369        C  0.25911704  0.68419541  0.41317532    -0.01100
C370        C  0.21583454  0.64201574  0.39419709    -0.10200
C371        C  0.15562316  0.70524063  0.32301884     0.06200
H372        H  0.24328647  0.77814536  0.36406701     0.08200
H373        H  0.30305432  0.76599541  0.41533409     0.11600
H374        H  0.20805188  0.60400792  0.40271137     0.11900
H375        H  0.14874407  0.61582632  0.35007455     0.08200
C376        C  0.13901101  0.68099077  0.27681514    -0.10900
C377        C  0.10450239  0.68790198  0.24849389    -0.10200
C378        C  0.08540705  0.71854530  0.26633023    -0.01100
C379        C  0.10236119  0.74276793  0.31268160    -0.11300
C380        C  0.13738170  0.73647702  0.34051577    -0.09700
H381        H  0.15313560  0.65713385  0.26248588     0.08200
H382        H  0.09289835  0.66938101  0.21262079     0.11900
H383        H  0.08766561  0.76567760  0.32814459     0.11600
H384        H  0.14936286  0.75506879  0.37635466     0.08200
C385        C  0.66032881  0.56892930  0.40224073    -0.10900
C386        C  0.69865236  0.55617517  0.40519519     0.06200
C387        C  0.74531319  0.58852854  0.38189505    -0.09700
C388        C  0.75282219  0.63142170  0.35537705    -0.11300
C389        C  0.71429998  0.64399482  0.35226315    -0.01100
C390        C  0.66829104  0.61244579  0.37700586    -0.10200
C391        C  0.68992498  0.50953645  0.43247659     0.06200
H392        H  0.77628885  0.58090242  0.38410377     0.08200
H393        H  0.78865755  0.65404086  0.33662121     0.11600
H394        H  0.63797935  0.62112976  0.37707639     0.11900
H395        H  0.62357303  0.54496744  0.41885998     0.08200
C396        C  0.65710043  0.49133183  0.47382150    -0.10900
C397        C  0.64953353  0.44823964  0.49971439    -0.10200
C398        C  0.67590646  0.42315578  0.48633912    -0.01100
C399        C  0.70693749  0.43974785  0.44393719    -0.11300
C400        C  0.71393305  0.48243536  0.41739852    -0.09700
H401        H  0.63798961  0.51085108  0.48712529     0.08200
H402        H  0.62377513  0.43521848  0.53111209     0.11900
H403        H  0.72645292  0.42058504  0.43183353     0.11600
H404        H  0.73818115  0.49396321  0.38485371     0.08200
C405        C  0.89653063  0.32723944  0.39947932    -0.10900
C406        C  0.84602690  0.28776762  0.40153799     0.06200
C407        C  0.83250931  0.24222308  0.37647310    -0.09700
C408        C  0.86847057  0.23687308  0.34863582    -0.11300
C409        C  0.91896692  0.27674758  0.34582184    -0.01100
C410        C  0.93257641  0.32166998  0.37237094    -0.10200
C411        C  0.80769073  0.29476492  0.42916413     0.06200
H412        H  0.79375495  0.21127430  0.37723901     0.08200
H413        H  0.85631587  0.20198885  0.32826457     0.11600
H414        H  0.97125582  0.35271430  0.37237285     0.11900
H415        H  0.90823594  0.36241421  0.41920843     0.08200
C416        C  0.77366338  0.25744524  0.46225083    -0.10900
C417        C  0.73937965  0.26559566  0.48994515    -0.10200
C418        C  0.73817465  0.31087755  0.48464014    -0.01100
C419        C  0.77119799  0.34752828  0.45070933    -0.11300
C420        C  0.80574820  0.33963913  0.42342731    -0.09700
H421        H  0.77460169  0.22272532  0.46770307     0.08200
H422        H  0.71440674  0.23698919  0.51625508     0.11900
H423        H  0.77196395  0.38297251  0.44699885     0.11600
H424        H  0.83134014  0.36895893  0.39799722     0.08200
C425        C  0.33627056  0.50577014  0.39051286    -0.10900
C426        C  0.30463279  0.49149866  0.34840377     0.06200
C427        C  0.27851981  0.51766479  0.33808301    -0.09700
C428        C  0.28381401  0.55688934  0.36916098    -0.11300
C429        C  0.31523867  0.57084018  0.41122759    -0.01100
C430        C  0.34185282  0.54526478  0.42126806    -0.10200
C431        C  0.29857002  0.44915676  0.31587705     0.06200
H432        H  0.25451709  0.50836156  0.30557025     0.08200
H433        H  0.26336055  0.57641123  0.36019758     0.11600
H434        H  0.36759569  0.55626078  0.45252772     0.11900
H435        H  0.35652731  0.48617742  0.40002919     0.08200
C436        C  0.33952916  0.44122351  0.30693412    -0.10900
C437        C  0.33305284  0.39956109  0.27911048    -0.10200
C438        C  0.28557623  0.36506566  0.25874128    -0.01100
C439        C  0.24521135  0.37424214  0.26611881    -0.11300
C440        C  0.25143264  0.41541459  0.29458453    -0.09700
H441        H  0.37666673  0.46700672  0.32182707     0.08200
H442        H  0.36507370  0.39375575  0.27490828     0.11900
H443        H  0.20854517  0.34925918  0.25013868     0.11600
H444        H  0.21889116  0.41999954  0.30087198     0.08200
C445        C  0.38952103  0.11868031  0.43004124    -0.10900
C446        C  0.43712870  0.14792299  0.40741981     0.06200
C447        C  0.44245413  0.14099844  0.35652825    -0.09700
C448        C  0.40136702  0.10459625  0.32906066    -0.11300
C449        C  0.35389709  0.07523730  0.35167247    -0.01100
C450        C  0.34805615  0.08305349  0.40221021    -0.10200
C451        C  0.48165485  0.18437352  0.43699070     0.06200
H452        H  0.47880505  0.16286845  0.33834779     0.08200
H453        H  0.40658126  0.09927046  0.29006560     0.11600
H454        H  0.31174747  0.06072801  0.42033774     0.11900
H455        H  0.38448627  0.12350599  0.46920184     0.08200
C456        C  0.51238650  0.23456132  0.42070967    -0.10900
C457        C  0.55494228  0.26857511  0.44825724    -0.10200
C458        C  0.56822581  0.25289435  0.49218275    -0.01100
C459        C  0.53815757  0.20210911  0.50746897    -0.11300
C460        C  0.49482587  0.16856179  0.48075844    -0.09700
H461        H  0.50304826  0.24759756  0.38696580     0.08200
H462        H  0.57711387  0.30735401  0.43541756     0.11900
H463        H  0.54836263  0.18791399  0.53972746     0.11600
H464        H  0.47232356  0.12976485  0.49351135     0.08200
C465        C  0.51223368  0.76854100  0.37308319    -0.10900
C466        C  0.50564532  0.79830732  0.33687255     0.06200
C467        C  0.45789580  0.79457646  0.33280723    -0.09700
C468        C  0.41852178  0.76336501  0.36520218    -0.11300
C469        C  0.42625210  0.73588017  0.40275486    -0.01100
C470        C  0.47306362  0.73791712  0.40583169    -0.10200
C471        C  0.54931960  0.83533423  0.30597445     0.06200
H472        H  0.45137258  0.81707259  0.30578606     0.08200
H473        H  0.38241809  0.76189491  0.36198266     0.11600
H474        H  0.47933355  0.71599045  0.43378174     0.11900
H475        H  0.54789444  0.76916691  0.37643992     0.08200
C476        C  0.59800122  0.86128370  0.32694066    -0.10900
C477        C  0.63909507  0.89735807  0.29954778    -0.10200
C478        C  0.63289204  0.90909867  0.25043225    -0.01100
C479        C  0.58435293  0.88352765  0.22909017    -0.11300
C480        C  0.54298865  0.84675198  0.25649285    -0.09700
H481        H  0.60434994  0.85480554  0.36522202     0.08200
H482        H  0.67581027  0.91713594  0.31737328     0.11900
H483        H  0.57855687  0.89162997  0.19116980     0.11600
H484        H  0.50619551  0.82715737  0.23886185     0.08200
C485        C  0.67219244  0.10243743  0.81789991    -0.10900
C486        C  0.70683374  0.15479774  0.81513441     0.06200
C487        C  0.74828104  0.17188364  0.78236150    -0.09700
C488        C  0.75496832  0.13742728  0.75345727    -0.11300
C489        C  0.71995759  0.08527060  0.75611498    -0.01100
C490        C  0.67847516  0.06819309  0.78847975    -0.10200
C491        C  0.69960993  0.19112916  0.84642648     0.06200
H492        H  0.77531170  0.21190638  0.77853027     0.08200
H493        H  0.78722120  0.15156096  0.72863796     0.11600
H494        H  0.65152366  0.02807472  0.79198925     0.11900
H495        H  0.64058467  0.08761416  0.84352154     0.08200
C496        C  0.65057823  0.18180354  0.85782181    -0.10900
C497        C  0.64365742  0.21525113  0.88794630    -0.10200
C498        C  0.68549623  0.25875014  0.90687418    -0.01100
C499        C  0.73440595  0.26907271  0.89495351    -0.11300
C500        C  0.74148115  0.23530415  0.86541669    -0.09700
H501        H  0.61742868  0.14898568  0.84297712     0.08200
H502        H  0.60565751  0.20735340  0.89634557     0.11900
H503        H  0.76706272  0.30314835  0.90869315     0.11600
H504        H  0.77974054  0.24357718  0.85802564     0.08200
C505        C  0.73960255  0.22543078  0.04651485    -0.10900
C506        C  0.69951315  0.18663610  0.07381843     0.06200
C507        C  0.65247748  0.18501749  0.07403668    -0.09700
C508        C  0.64566451  0.22072868  0.04728109    -0.11300
C509        C  0.68548708  0.25847235  0.01938286    -0.01100
C510        C  0.73263572  0.26093818  0.01968675    -0.10200
C511        C  0.70656378  0.14789487  0.10155442     0.06200
H512        H  0.62050195  0.15543812  0.09398956     0.08200
H513        H  0.60895815  0.21819769  0.04737688     0.11600
H514        H  0.76416429  0.29049368  0.99923101     0.11900
H515        H  0.77659430  0.22869451  0.04621785     0.08200
C516        C  0.73715365  0.12934145  0.08214038    -0.10900
C517        C  0.74256508  0.09202653  0.10753560    -0.10200
C518        C  0.71721366  0.07192614  0.15280819    -0.01100
C519        C  0.68739474  0.09107727  0.17265659    -0.11300
C520        C  0.68224138  0.12856563  0.14748718    -0.09700
H521        H  0.75595396  0.14268793  0.04659378     0.08200
H522        H  0.76539165  0.07776363  0.09097743     0.11900
H523        H  0.66807418  0.07711666  0.20789891     0.11600
H524        H  0.65933915  0.14261037  0.16425916     0.08200
C525        C  0.52481401  0.28227784  0.82701836    -0.10900
C526        C  0.49366772  0.30213863  0.84022355     0.06200
C527        C  0.50385179  0.33043221  0.88427021    -0.09700
C528        C  0.54426975  0.33849517  0.91480053    -0.11300
C529        C  0.57419383  0.31671427  0.90301175    -0.01100
C530        C  0.56443317  0.28914213  0.85834012    -0.10200
C531        C  0.44971656  0.29241996  0.80909583     0.06200
H532        H  0.48078527  0.34681687  0.89474610     0.08200
H533        H  0.55213173  0.36200776  0.94750863     0.11600
H534        H  0.58688171  0.27209270  0.84792896     0.11900
H535        H  0.51759422  0.26029410  0.79319190     0.08200
C536        C  0.45527032  0.30351152  0.75788281    -0.10900
C537        C  0.41362374  0.29615433  0.72943179    -0.10200
C538        C  0.36572800  0.27638647  0.75161708    -0.01100
C539        C  0.36015340  0.26435777  0.80253860    -0.11300
C540        C  0.40180015  0.27270780  0.83107392    -0.09700
H541        H  0.49193180  0.31869303  0.74019047     0.08200
H542        H  0.41863780  0.30547221  0.69014839     0.11900
H543        H  0.32366539  0.24956872  0.82051516     0.11600
H544        H  0.39662577  0.26368855  0.87042948     0.08200
C545        C  0.89714628  0.56177185  0.80923122    -0.10900
C546        C  0.84703536  0.55164201  0.81360749     0.06200
C547        C  0.83259929  0.58279174  0.78849221    -0.09700
C548        C  0.86765084  0.62332111  0.75958765    -0.11300
C549        C  0.91794879  0.63403940  0.75560021    -0.01100
C550        C  0.93232419  0.60267956  0.78065795    -0.10200
C551        C  0.80997819  0.50865433  0.84429370     0.06200
H552        H  0.79406918  0.57543641  0.79084448     0.08200
H553        H  0.85559453  0.64647533  0.74014804     0.11600
H554        H  0.97103839  0.61050390  0.77925167     0.11900
H555        H  0.90935545  0.53864862  0.82881595     0.08200
C556        C  0.80617853  0.46089817  0.84004357    -0.10900
C557        C  0.77190538  0.42043049  0.86947333    -0.10200
C558        C  0.74167312  0.42732212  0.90436135    -0.01100
C559        C  0.74474490  0.47472206  0.90829410    -0.11300
C560        C  0.77849609  0.51508549  0.87824673    -0.09700
H561        H  0.82957116  0.45484868  0.81372588     0.08200
H562        H  0.76977983  0.38397823  0.86585846     0.11900
H563        H  0.72125081  0.48043949  0.93477063     0.11600
H564        H  0.78080198  0.55158283  0.88224295     0.08200
C565        C  0.53201044  0.33940184  0.08110005    -0.10900
C566        C  0.48499395  0.29503704  0.07375026     0.06200
C567        C  0.48209793  0.25943848  0.03844755    -0.09700
C568        C  0.52485764  0.26829811  0.01101095    -0.11300
C569        C  0.57137445  0.31293967  0.01817966    -0.01100
C570        C  0.57465389  0.34805388  0.05379778    -0.10200
C571        C  0.43933962  0.28659088  0.10236740     0.06200
H572        H  0.44688308  0.22453185  0.03220980     0.08200
H573        H  0.52160017  0.24050371  0.98385891     0.11600
H574        H  0.60976754  0.38312024  0.05922939     0.11900
H575        H  0.53569258  0.36826230  0.10705016     0.08200
C576        C  0.44400459  0.30357364  0.15187208    -0.10900
C577        C  0.40201400  0.29844746  0.17791841    -0.10200
C578        C  0.35403202  0.27556378  0.15551979    -0.01100
C579        C  0.34870461  0.25703285  0.10670729    -0.11300
C580        C  0.39095273  0.26277253  0.08027679    -0.09700
H581        H  0.48021572  0.32096095  0.17065239     0.08200
H582        H  0.40703482  0.31257839  0.21573031     0.11900
H583        H  0.31219919  0.23972259  0.08844420     0.11600
H584        H  0.38588925  0.24986019  0.04204910     0.08200
C585        C  0.84359309  0.58758560  0.13078388    -0.10900
C586        C  0.85744316  0.55600328  0.10501166     0.06200
C587        C  0.90837983  0.56819127  0.10656183    -0.09700
C588        C  0.94435332  0.61075853  0.13255467    -0.11300
C589        C  0.93049532  0.64206495  0.15873657    -0.01100
C590        C  0.87959569  0.62993313  0.15744148    -0.10200
C591        C  0.81932252  0.51111240  0.07602515     0.06200
H592        H  0.92064791  0.54459985  0.08805596     0.08200
H593        H  0.98329427  0.61923204  0.13187146     0.11600
H594        H  0.86736805  0.65276885  0.17751842     0.11900
H595        H  0.80496864  0.58002114  0.12995075     0.08200
C596        C  0.76868854  0.48265484  0.09200304    -0.10900
C597        C  0.73281516  0.44164828  0.06383232    -0.10200
C598        C  0.74651358  0.42791899  0.01902228    -0.01100
C599        C  0.79763412  0.45463911  0.00446188    -0.11300
C600        C  0.83326624  0.49617461  0.03194144    -0.09700
H601        H  0.75667576  0.49182729  0.12648607     0.08200
H602        H  0.69425337  0.42110639  0.07700586     0.11900
H603        H  0.81038360  0.44355702  0.97170787     0.11600
H604        H  0.87166171  0.51691749  0.01805198     0.08200
C605        C  0.11275904  0.43668220  0.89222641    -0.10900
C606        C  0.16339418  0.44833338  0.89055544     0.06200
C607        C  0.17572147  0.41643225  0.86355319    -0.09700
C608        C  0.13808168  0.37417555  0.83788718    -0.11300
C609        C  0.08714141  0.36242496  0.83944221    -0.01100
C610        C  0.07511460  0.39410052  0.86750780    -0.10200
C611        C  0.20246910  0.49311871  0.91818301     0.06200
H612        H  0.21458952  0.42474406  0.86163038     0.08200
H613        H  0.14910808  0.35134120  0.81611455     0.11600
H614        H  0.03636541  0.38583976  0.87080054     0.11900
H615        H  0.10215378  0.46017445  0.91351649     0.08200
C616        C  0.20642485  0.54082740  0.91194559    -0.10900
C617        C  0.23934013  0.58196506  0.94170376    -0.10200
C618        C  0.26784694  0.57581836  0.97915011    -0.01100
C619        C  0.26547531  0.52871819  0.98417854    -0.11300
C620        C  0.23332282  0.48778791  0.95366867    -0.09700
H621        H  0.18330616  0.54596578  0.88457215     0.08200
H622        H  0.24095224  0.61803187  0.93687205     0.11900
H623        H  0.28768201  0.52338857  0.01247181     0.11600
H624        H  0.23090415  0.45140412  0.95922741     0.08200
C625        C  0.16825045  0.50181590  0.10414477    -0.10900
C626        C  0.18122799  0.48645864  0.14846397     0.06200
C627        C  0.23150773  0.51380741  0.16529420    -0.09700
C628        C  0.26800960  0.55493895  0.13806738    -0.11300
C629        C  0.25529318  0.56970941  0.09336345    -0.01100
C630        C  0.20473522  0.54333056  0.07724912    -0.10200
C631        C  0.14258221  0.44219278  0.17708941     0.06200
H632        H  0.24259754  0.50384173  0.19989692     0.08200
H633        H  0.30618246  0.57510008  0.15217024     0.11600
H634        H  0.19313766  0.55506469  0.04412928     0.11900
H635        H  0.12993987  0.48154714  0.08997413     0.08200
C636        C  0.09264582  0.43277342  0.18110335    -0.10900
C637        C  0.05631859  0.39084471  0.20770827    -0.10200
C638        C  0.06918375  0.35757667  0.23119871    -0.01100
C639        C  0.11911862  0.36721296  0.22745312    -0.11300
C640        C  0.15534040  0.40883821  0.20055977    -0.09700
H641        H  0.08166046  0.45802914  0.16400868     0.08200
H642        H  0.01798591  0.38412128  0.20930469     0.11900
H643        H  0.13009042  0.34250491  0.24562281     0.11600
H644        H  0.19320948  0.41451630  0.19759692     0.08200
C645        C  0.25855983  0.83989558  0.87136134    -0.10900
C646        C  0.29189310  0.85459347  0.91230728     0.06200
C647        C  0.31740002  0.90611445  0.92629699    -0.09700
C648        C  0.31103529  0.94189865  0.89929927    -0.11300
C649        C  0.27819020  0.92705402  0.85826819    -0.01100
C650        C  0.25147460  0.87560516  0.84500630    -0.10200
C651        C  0.30057963  0.81667411  0.93972327     0.06200
H652        H  0.34232508  0.91900907  0.95823660     0.08200
H653        H  0.33179690  0.98133477  0.91049810     0.11600
H654        H  0.22641516  0.86329587  0.81310568     0.11900
H655        H  0.23884599  0.80098238  0.85862728     0.08200
C656        C  0.26176683  0.76568968  0.94418141    -0.10900
C657        C  0.27012026  0.73025989  0.96938083    -0.10200
C658        C  0.31706755  0.74506905  0.99140053    -0.01100
C659        C  0.35589024  0.79558034  0.98743326    -0.11300
C660        C  0.34792523  0.83094744  0.96155295    -0.09700
H661        H  0.22451022  0.75315728  0.92903825     0.08200
H662        H  0.23947338  0.69152144  0.97288151     0.11900
H663        H  0.39238789  0.80756505  0.00432910     0.11600
H664        H  0.37919226  0.86934598  0.95825116     0.08200
C665        C  0.50475136  0.67608241  0.97843721    -0.10900
C666        C  0.51982976  0.70793506  0.93659360     0.06200
C667        C  0.49164651  0.73106017  0.92289638    -0.09700
C668        C  0.44929890  0.72270503  0.95071471    -0.11300
C669        C  0.43398553  0.69064118  0.99244315    -0.01100
C670        C  0.46184940  0.66691804  0.00561094    -0.10200
C671        C  0.56332450  0.71501091  0.90587311     0.06200
H672        H  0.50259910  0.75579440  0.89073051     0.08200
H673        H  0.42863803  0.74151128  0.93972966     0.11600
H674        H  0.44998629  0.64049393  0.03639902     0.11900
H675        H  0.52529229  0.65706954  0.98916187     0.08200
C676        C  0.61067143  0.72996087  0.92761619    -0.10900
C677        C  0.65126122  0.73574302  0.89822327    -0.10200
C678        C  0.64465805  0.72538977  0.84695051    -0.01100
C679        C  0.59731441  0.71018157  0.82538019    -0.11300
C680        C  0.55720327  0.70559657  0.85444295    -0.09700
H681        H  0.61623659  0.73741831  0.96722319     0.08200
H682        H  0.68744222  0.74721652  0.91557657     0.11900
H683        H  0.59147459  0.70192171  0.78591177     0.11600
H684        H  0.52096957  0.69359304  0.83694798     0.08200
C685        C  0.26104422  0.77485730  0.12823505    -0.10900
C686        C  0.29724508  0.80544506  0.16399819     0.06200
C687        C  0.34004105  0.80003931  0.17088609    -0.09700
C688        C  0.34733495  0.76633771  0.14135224    -0.11300
C689        C  0.31232145  0.73787373  0.10413622    -0.01100
C690        C  0.26857845  0.74148849  0.09856131    -0.10200
C691        C  0.29150427  0.84451035  0.19200277     0.06200
H692        H  0.36877956  0.82310170  0.19785556     0.08200
H693        H  0.38114171  0.76364284  0.14647073     0.11600
H694        H  0.24026201  0.71851420  0.07122485     0.11900
H695        H  0.22694760  0.77693931  0.12295468     0.08200
C696        C  0.27232971  0.87237410  0.16789687    -0.10900
C697        C  0.26761374  0.90980306  0.19329723    -0.10200
C698        C  0.28219258  0.92061920  0.24342613    -0.01100
C699        C  0.30178269  0.89320132  0.26762492    -0.11300
C700        C  0.30621687  0.85537353  0.24223620    -0.09700
H701        H  0.26181350  0.86595857  0.12895686     0.08200
H702        H  0.25324685  0.93094051  0.17342288     0.11900
H703        H  0.31288408  0.90047998  0.30639144     0.11600
H704        H  0.32062596  0.83427250  0.26208205     0.08200
C705        C  0.60206466  0.74163834  0.17379333    -0.10900
C706        C  0.55449544  0.71885336  0.19704753     0.06200
C707        C  0.55001180  0.70133619  0.24626398    -0.09700
C708        C  0.59208010  0.70534199  0.27120869    -0.11300
C709        C  0.63937442  0.72689903  0.24737636    -0.01100
C710        C  0.64397666  0.74551269  0.19860619    -0.10200
C711        C  0.50934511  0.71021607  0.16847677     0.06200
H712        H  0.51387630  0.68418834  0.26528099     0.08200
H713        H  0.58762347  0.69145924  0.30906213     0.11600
H714        H  0.67968916  0.76161067  0.17892223     0.11900
H715        H  0.60650022  0.75467668  0.13561856     0.08200
C716        C  0.51179114  0.74748380  0.13579674    -0.10900
C717        C  0.47084903  0.73707803  0.10495011    -0.10200
C718        C  0.42690552  0.68931448  0.10632633    -0.01100
C719        C  0.42374351  0.65269867  0.13996653    -0.11300
C720        C  0.46458911  0.66298977  0.17079556    -0.09700
H721        H  0.54559006  0.78443271  0.13372349     0.08200
H722        H  0.47358805  0.76601392  0.07958367     0.11900
H723        H  0.39058926  0.61541738  0.14088223     0.11600
H724        H  0.46191886  0.63325628  0.19493874     0.08200
loop_ 
_geom_bond_atom_site_label_1 
_geom_bond_atom_site_label_2 
_geom_bond_distance 
_geom_bond_site_symmetry_2 
_ccdc_geom_bond_type 
C1            H2   1.111       .  S
C1            C7   1.538   1_556  S
C1            C6   1.540   1_556  S
C1            C5   1.545   1_556  S
C3            H4   1.111       .  S
C3            C9   1.532       .  S
C3            C8   1.531       .  S
C3           C10   1.540       .  S
C5            C8   1.376       .  D
C5          C669   1.492   1_554  S
C6            C9   1.372       .  D
C6          C658   1.480   1_554  S
C7           C10   1.379       .  D
C7          C618   1.487   1_554  S
C8          C718   1.478       .  S
C9          C689   1.481       .  S
C10         C629   1.489       .  S
C11          H12   1.111       .  S
C11          C17   1.546   1_554  S
C11          C16   1.545   1_554  S
C11          C15   1.540   1_554  S
C13          H14   1.111       .  S
C13          C19   1.536       .  S
C13          C18   1.529       .  S
C13          C20   1.531       .  S
C15          C18   1.370       .  D
C15         C509   1.485   1_556  S
C16          C19   1.380       .  D
C16         C569   1.486   1_556  S
C17          C20   1.379       .  D
C17         C598   1.497   1_556  S
C18         C498   1.472       .  S
C19         C529   1.494       .  S
C20         C558   1.478       .  S
O21         Mg23   2.145   1_455  S
O21         Mg29   2.146       .  S
O21          C56   1.237       .  S
C22          O35   1.236       .  S
C22          O59   1.271       .  A
C22          H61   1.081       .  S
Mg23         O52   2.158       .  S
Mg23         O67   2.334       .  S
Mg23         O63   2.273       .  S
Mg23         O34   2.301       .  S
O24         Mg66   2.147       .  S
O24         Mg49   2.156       .  S
O24          C45   1.237       .  S
O25          C56   1.271       .  A
O25         Mg49   2.298   1_565  S
C26          O28   1.273       .  A
C26          O40   1.277   1_565  A
C26          C73   1.484       .  S
O27          C55   1.270   1_455  A
O27         Mg29   2.297       .  S
O28         Mg60   2.268       .  S
Mg29         O35   2.144   1_565  S
Mg29         O43   2.262       .  S
Mg29         O31   2.301       .  S
C30          O68   1.271       .  A
C30          O36   1.278   1_655  A
C30          C98   1.482       .  S
O31          C38   1.276   1_565  A
H32          C45   1.081       .  S
C33          O47   1.236       .  S
C33          O48   1.271   1_545  A
C33          H58   1.081       .  S
O34          C57   1.272       .  A
O35         Mg49   2.157       .  S
O36         Mg66   2.315       .  S
C37          O50   1.274       .  A
C37          O42   1.276       .  A
C37          C91   1.479       .  S
C38          O65   1.273       .  A
C38          C82   1.483       .  S
Mg39         O46   2.145   1_545  S
Mg39         O47   2.158       .  S
Mg39         O40   2.341       .  S
Mg39         O41   2.304       .  S
Mg39         O68   2.258       .  S
O41          C45   1.271   1_655  A
O42         Mg49   2.326       .  S
O43          C62   1.273       .  A
O44          C64   1.276       .  A
O44         Mg60   2.291       .  S
O46         Mg60   2.142       .  S
O46          C57   1.238       .  S
O47         Mg66   2.147   1_655  S
O48         Mg60   2.301       .  S
Mg49         O65   2.273       .  S
O50         Mg66   2.274       .  S
H51          C56   1.081       .  S
O52         Mg60   2.139       .  S
O52          C55   1.236       .  S
H53          C55   1.081       .  S
H54          C57   1.081       .  S
O59         Mg66   2.303       .  S
C62          O67   1.277   1_455  A
C62         C116   1.478       .  S
O63          C64   1.273       .  A
C64         C109   1.482       .  S
C69         C518   1.495       .  S
C69          C70   1.412   1_545  A
C69          C74   1.415       .  A
C70          H75   1.083       .  S
C70          C71   1.405       .  A
C71         C478   1.488       .  S
C71          C72   1.402       .  A
C72          H76   1.084       .  S
C72          C73   1.402       .  A
C73          C74   1.410   1_565  A
C74          H77   1.083       .  S
C78         C698   1.486       .  S
C78          C79   1.404       .  A
C78          C83   1.404       .  A
C79          H84   1.084       .  S
C79          C80   1.406   1_565  A
C80         C449   1.481       .  S
C80          C81   1.406       .  A
C81          H85   1.084       .  S
C81          C82   1.408       .  A
C82          C83   1.405   1_545  A
C83          H86   1.084       .  S
C87         C578   1.486       .  S
C87          C88   1.406       .  A
C87          C92   1.409       .  A
C88          H93   1.083       .  S
C88          C89   1.406       .  A
C89         C438   1.495       .  S
C89          C90   1.406       .  A
C90          H94   1.083       .  S
C90          C91   1.403       .  A
C91          C92   1.407       .  A
C92          H95   1.084       .  S
C96         C409   1.495       .  S
C96          C97   1.411       .  A
C96         C101   1.408       .  A
C97         H102   1.083       .  S
C97          C98   1.409       .  A
C98          C99   1.402   1_655  A
C99         H103   1.083       .  S
C99         C100   1.402       .  A
C100        C638   1.486       .  S
C100        C101   1.404   1_455  A
C101        H104   1.082       .  S
C105        C709   1.484       .  S
C105        C106   1.402       .  A
C105        C110   1.398       .  A
C106        H111   1.082       .  S
C106        C107   1.411       .  A
C107        C389   1.501       .  S
C107        C108   1.414       .  A
C108        H112   1.082       .  S
C108        C109   1.409       .  A
C109        C110   1.402       .  A
C110        H113   1.083       .  S
C114        C378   1.486       .  S
C114        C115   1.401       .  A
C114        C119   1.402       .  A
C115        H120   1.084       .  S
C115        C116   1.401       .  A
C116        C117   1.408   1_455  A
C117        H121   1.083       .  S
C117        C118   1.414       .  A
C118        C589   1.494       .  S
C118        C119   1.408   1_655  A
C119        H122   1.083       .  S
C123        H124   1.111       .  S
C123        C129   1.535       .  S
C123        C128   1.539       .  S
C123        C127   1.534       .  S
C125        H126   1.110       .  S
C125        C131   1.542       .  S
C125        C130   1.542       .  S
C125        C132   1.548       .  S
C127        C130   1.377       .  D
C127        C358   1.481       .  S
C128        C131   1.377       .  D
C128        C318   1.495       .  S
C129        C132   1.380       .  D
C129        C338   1.485       .  S
C130        C398   1.495       .  S
C131        C418   1.487       .  S
C132        C458   1.496       .  S
C133        H134   1.110       .  S
C133        C139   1.549       .  S
C133        C138   1.538       .  S
C133        C137   1.543       .  S
C135        H136   1.111       .  S
C135        C141   1.526       .  S
C135        C140   1.533       .  S
C135        C142   1.530       .  S
C137        C140   1.377       .  D
C137        C249   1.485       .  S
C138        C141   1.368       .  D
C138        C278   1.483       .  S
C139        C142   1.382       .  D
C139        C289   1.494       .  S
C140        C429   1.487       .  S
C141        C369   1.467       .  S
C142        C469   1.484       .  S
O143       Mg145   2.148       .  S
O143       Mg151   2.155       .  S
O143        C178   1.237       .  S
C144        O157   1.236       .  S
C144        O181   1.271   1_655  A
C144        H183   1.081       .  S
Mg145       O174   2.149       .  S
Mg145       O189   2.311       .  S
Mg145       O185   2.269       .  S
Mg145       O156   2.296       .  S
O146       Mg188   2.156       .  S
O146       Mg171   2.134   1_455  S
O146        C167   1.237       .  S
O147        C178   1.272   1_545  A
O147       Mg171   2.307       .  S
C148        O150   1.275       .  A
C148        O162   1.275   1_565  A
C148        C193   1.488       .  S
O149        C177   1.271       .  A
O149       Mg151   2.300       .  S
O150       Mg182   2.289       .  S
Mg151       O157   2.150   1_565  S
Mg151       O165   2.275       .  S
Mg151       O153   2.323       .  S
C152        O190   1.271       .  A
C152        O158   1.275       .  A
C152        C220   1.472       .  S
O153        C160   1.276   1_565  A
H154        C167   1.081       .  S
C155        O169   1.237       .  S
C155        O170   1.270   1_545  A
C155        H180   1.081       .  S
O156        C179   1.270   1_655  A
O157       Mg171   2.146       .  S
O158       Mg188   2.314       .  S
C159        O172   1.272       .  A
C159        O164   1.278   1_455  A
C159        C211   1.487       .  S
C160        O187   1.272       .  A
C160        C204   1.474       .  S
Mg161       O168   2.128   1_545  S
Mg161       O169   2.148       .  S
Mg161       O162   2.298       .  S
Mg161       O163   2.299       .  S
Mg161       O190   2.248       .  S
O163        C167   1.271       .  A
O164       Mg171   2.316       .  S
O165        C184   1.273       .  A
O166        C186   1.275   1_455  A
O166       Mg182   2.313       .  S
O168       Mg182   2.151       .  S
O168        C179   1.236       .  S
O169       Mg188   2.145       .  S
O170       Mg182   2.296       .  S
Mg171       O187   2.257       .  S
O172       Mg188   2.271       .  S
H173        C178   1.081       .  S
O174       Mg182   2.154   1_655  S
O174        C177   1.237       .  S
H175        C177   1.081       .  S
H176        C179   1.081       .  S
O181       Mg188   2.301       .  S
C184        O189   1.277       .  A
C184        C240   1.484       .  S
O185        C186   1.275       .  A
C186        C231   1.473       .  S
C191        C649   1.487       .  S
C191        C192   1.408       .  A
C191        C196   1.405   1_565  A
C192        H197   1.083       .  S
C192        C193   1.409       .  A
C193        C194   1.410   1_565  A
C194        H198   1.083       .  S
C194        C195   1.406       .  A
C195        C329   1.493       .  S
C195        C196   1.407       .  A
C196        H199   1.083       .  S
C200        C489   1.481       .  S
C200        C201   1.403       .  A
C200        C205   1.401       .  A
C201        H206   1.084       .  S
C201        C202   1.404   1_545  A
C202        C298   1.480       .  S
C202        C203   1.407       .  A
C203        H207   1.084       .  S
C203        C204   1.405   1_565  A
C204        C205   1.404       .  A
C205        H208   1.084       .  S
C209        C309   1.482       .  S
C209        C210   1.400       .  A
C209        C214   1.402   1_655  A
C210        H215   1.084       .  S
C210        C211   1.404   1_655  A
C211        C212   1.412       .  A
C212        H216   1.083       .  S
C212        C213   1.414       .  A
C213        C609   1.499       .  S
C213        C214   1.410       .  A
C214        H217   1.083       .  S
C218        C538   1.479       .  S
C218        C219   1.398       .  A
C218        C223   1.401       .  A
C219        H224   1.085       .  S
C219        C220   1.401       .  A
C220        C221   1.405       .  A
C221        H225   1.083       .  S
C221        C222   1.410       .  A
C222        C258   1.490       .  S
C222        C223   1.410       .  A
C223        H226   1.083       .  S
C227        C269   1.491       .  S
C227        C228   1.409   1_455  A
C227        C232   1.411       .  A
C228        H233   1.083       .  S
C228        C229   1.405       .  A
C229        C549   1.486       .  S
C229        C230   1.401       .  A
C230        H234   1.084       .  S
C230        C231   1.398       .  A
C231        C232   1.406   1_655  A
C232        H235   1.083       .  S
C236        C678   1.480       .  S
C236        C237   1.405       .  A
C236        C241   1.406       .  A
C237        H242   1.083       .  S
C237        C238   1.406       .  A
C238        C349   1.493       .  S
C238        C239   1.407       .  A
C239        H243   1.083       .  S
C239        C240   1.405       .  A
C240        C241   1.408       .  A
C241        H244   1.084       .  S
C245        H255   1.083       .  S
C245        C246   1.404       .  A
C245        C250   1.401       .  A
C246        C251   1.481       .  S
C246        C247   1.404       .  A
C247        H252   1.083       .  S
C247        C248   1.397       .  A
C248        H253   1.079       .  S
C248        C249   1.401       .  A
C249        C250   1.406       .  A
C250        H254   1.083       .  S
C251        C256   1.405       .  A
C251        C260   1.402       .  A
C256        H261   1.083       .  S
C256        C257   1.403       .  A
C257        H262   1.083       .  S
C257        C258   1.409       .  A
C258        C259   1.406       .  A
C259        H263   1.083       .  S
C259        C260   1.395       .  A
C260        H264   1.083       .  S
C265        H275   1.083       .  S
C265        C266   1.405       .  A
C265        C270   1.398       .  A
C266        C271   1.491       .  S
C266        C267   1.407       .  A
C267        H272   1.083       .  S
C267        C268   1.403       .  A
C268        H273   1.083       .  S
C268        C269   1.407       .  A
C269        C270   1.407       .  A
C270        H274   1.083       .  S
C271        C276   1.409       .  A
C271        C280   1.407       .  A
C276        H281   1.083       .  S
C276        C277   1.400       .  A
C277        H282   1.083       .  S
C277        C278   1.400       .  A
C278        C279   1.403       .  A
C279        H283   1.082       .  S
C279        C280   1.401       .  A
C280        H284   1.083       .  S
C285        H295   1.083       .  S
C285        C286   1.402       .  A
C285        C290   1.399       .  A
C286        C291   1.479       .  S
C286        C287   1.402       .  A
C287        H292   1.083       .  S
C287        C288   1.398       .  A
C288        H293   1.081       .  S
C288        C289   1.408       .  A
C289        C290   1.406       .  A
C290        H294   1.078       .  S
C291        C296   1.403       .  A
C291        C300   1.405       .  A
C296        H301   1.083       .  S
C296        C297   1.398       .  A
C297        H302   1.083       .  S
C297        C298   1.405       .  A
C298        C299   1.404       .  A
C299        H303   1.083       .  S
C299        C300   1.399       .  A
C300        H304   1.083       .  S
C305        H315   1.083       .  S
C305        C306   1.405       .  A
C305        C310   1.401       .  A
C306        C311   1.480       .  S
C306        C307   1.403       .  A
C307        H312   1.083       .  S
C307        C308   1.396       .  A
C308        H313   1.083       .  S
C308        C309   1.405       .  A
C309        C310   1.405       .  A
C310        H314   1.083       .  S
C311        C316   1.402       .  A
C311        C320   1.403       .  A
C316        H321   1.083       .  S
C316        C317   1.399       .  A
C317        H322   1.078       .  S
C317        C318   1.406       .  A
C318        C319   1.408       .  A
C319        H323   1.081       .  S
C319        C320   1.398       .  A
C320        H324   1.083       .  S
C325        H335   1.079       .  S
C325        C326   1.408       .  A
C325        C330   1.403       .  A
C326        C331   1.496       .  S
C326        C327   1.407       .  A
C327        H332   1.082       .  S
C327        C328   1.397       .  A
C328        H333   1.083       .  S
C328        C329   1.405       .  A
C329        C330   1.408       .  A
C330        H334   1.083       .  S
C331        C336   1.410       .  A
C331        C340   1.408       .  A
C336        H341   1.082       .  S
C336        C337   1.403       .  A
C337        H342   1.083       .  S
C337        C338   1.403       .  A
C338        C339   1.400       .  A
C339        H343   1.079       .  S
C339        C340   1.397       .  A
C340        H344   1.082       .  S
C345        H355   1.082       .  S
C345        C346   1.402       .  A
C345        C350   1.396       .  A
C346        C351   1.485       .  S
C346        C347   1.406       .  A
C347        H352   1.083       .  S
C347        C348   1.401       .  A
C348        H353   1.082       .  S
C348        C349   1.408       .  A
C349        C350   1.406       .  A
C350        H354   1.080       .  S
C351        C356   1.407       .  A
C351        C360   1.406       .  A
C356        H361   1.083       .  S
C356        C357   1.397       .  A
C357        H362   1.083       .  S
C357        C358   1.403       .  A
C358        C359   1.402       .  A
C359        H363   1.083       .  S
C359        C360   1.398       .  A
C360        H364   1.083       .  S
C365        H375   1.083       .  S
C365        C366   1.404       .  A
C365        C370   1.396       .  A
C366        C371   1.473       .  S
C366        C367   1.404       .  A
C367        H372   1.083       .  S
C367        C368   1.394       .  A
C368        H373   1.083       .  S
C368        C369   1.399       .  A
C369        C370   1.400       .  A
C370        H374   1.083       .  S
C371        C376   1.403       .  A
C371        C380   1.401       .  A
C376        H381   1.083       .  S
C376        C377   1.398       .  A
C377        H382   1.083       .  S
C377        C378   1.408       .  A
C378        C379   1.407       .  A
C379        H383   1.082       .  S
C379        C380   1.394       .  A
C380        H384   1.083       .  S
C385        H395   1.082       .  S
C385        C386   1.406       .  A
C385        C390   1.397       .  A
C386        C391   1.499       .  S
C386        C387   1.409       .  A
C387        H392   1.082       .  S
C387        C388   1.402       .  A
C388        H393   1.082       .  S
C388        C389   1.409       .  A
C389        C390   1.409       .  A
C390        H394   1.081       .  S
C391        C396   1.409       .  A
C391        C400   1.409       .  A
C396        H401   1.080       .  S
C396        C397   1.398       .  A
C397        H402   1.083       .  S
C397        C398   1.404       .  A
C398        C399   1.403       .  A
C399        H403   1.071       .  S
C399        C400   1.402       .  A
C400        H404   1.083       .  S
C405        H415   1.083       .  S
C405        C406   1.404       .  A
C405        C410   1.397       .  A
C406        C411   1.487       .  S
C406        C407   1.405       .  A
C407        H412   1.083       .  S
C407        C408   1.402       .  A
C408        H413   1.082       .  S
C408        C409   1.409       .  A
C409        C410   1.408       .  A
C410        H414   1.082       .  S
C411        C416   1.407       .  A
C411        C420   1.405       .  A
C416        H421   1.082       .  S
C416        C417   1.402       .  A
C417        H422   1.084       .  S
C417        C418   1.404       .  A
C418        C419   1.402       .  A
C419        H423   1.072       .  S
C419        C420   1.399       .  A
C420        H424   1.084       .  S
C425        H435   1.082       .  S
C425        C426   1.408       .  A
C425        C430   1.397       .  A
C426        C431   1.490       .  S
C426        C427   1.407       .  A
C427        H432   1.083       .  S
C427        C428   1.398       .  A
C428        H433   1.082       .  S
C428        C429   1.404       .  A
C429        C430   1.404       .  A
C430        H434   1.082       .  S
C431        C436   1.407       .  A
C431        C440   1.405       .  A
C436        H441   1.083       .  S
C436        C437   1.398       .  A
C437        H442   1.082       .  S
C437        C438   1.408       .  A
C438        C439   1.406       .  A
C439        H443   1.079       .  S
C439        C440   1.398       .  A
C440        H444   1.082       .  S
C445        H455   1.083       .  S
C445        C446   1.407       .  A
C445        C450   1.402       .  A
C446        C451   1.484       .  S
C446        C447   1.404       .  A
C447        H452   1.083       .  S
C447        C448   1.399       .  A
C448        H453   1.083       .  S
C448        C449   1.404       .  A
C449        C450   1.404       .  A
C450        H454   1.083       .  S
C451        C456   1.405       .  A
C451        C460   1.403       .  A
C456        H461   1.083       .  S
C456        C457   1.401       .  A
C457        H462   1.083       .  S
C457        C458   1.406       .  A
C458        C459   1.408       .  A
C459        H463   1.081       .  S
C459        C460   1.399       .  A
C460        H464   1.083       .  S
C465        H475   1.082       .  S
C465        C466   1.410       .  A
C465        C470   1.399       .  A
C466        C471   1.494       .  S
C466        C467   1.408       .  A
C467        H472   1.082       .  S
C467        C468   1.400       .  A
C468        H473   1.083       .  S
C468        C469   1.404       .  A
C469        C470   1.401       .  A
C470        H474   1.083       .  S
C471        C476   1.406       .  A
C471        C480   1.411       .  A
C476        H481   1.082       .  S
C476        C477   1.394       .  A
C477        H482   1.083       .  S
C477        C478   1.404       .  A
C478        C479   1.406       .  A
C479        H483   1.083       .  S
C479        C480   1.405       .  A
C480        H484   1.082       .  S
C485        H495   1.082       .  S
C485        C486   1.407       .  A
C485        C490   1.395       .  A
C486        C491   1.490       .  S
C486        C487   1.409       .  A
C487        H492   1.082       .  S
C487        C488   1.399       .  A
C488        H493   1.083       .  S
C488        C489   1.405       .  A
C489        C490   1.403       .  A
C490        H494   1.083       .  S
C491        C496   1.410       .  A
C491        C500   1.409       .  A
C496        H501   1.082       .  S
C496        C497   1.396       .  A
C497        H502   1.083       .  S
C497        C498   1.398       .  A
C498        C499   1.399       .  A
C499        H503   1.083       .  S
C499        C500   1.398       .  A
C500        H504   1.082       .  S
C505        H515   1.082       .  S
C505        C506   1.409       .  A
C505        C510   1.401       .  A
C506        C511   1.499       .  S
C506        C507   1.411       .  A
C507        H512   1.082       .  S
C507        C508   1.403       .  A
C508        H513   1.083       .  S
C508        C509   1.401       .  A
C509        C510   1.402       .  A
C510        H514   1.082   1_554  S
C511        C516   1.410       .  A
C511        C520   1.407       .  A
C516        H521   1.082       .  S
C516        C517   1.404       .  A
C517        H522   1.083       .  S
C517        C518   1.406       .  A
C518        C519   1.407       .  A
C519        H523   1.083       .  S
C519        C520   1.401       .  A
C520        H524   1.082       .  S
C525        H535   1.084       .  S
C525        C526   1.403       .  A
C525        C530   1.400       .  A
C526        C531   1.480       .  S
C526        C527   1.404       .  A
C527        H532   1.083       .  S
C527        C528   1.397       .  A
C528        H533   1.082       .  S
C528        C529   1.406       .  A
C529        C530   1.408       .  A
C530        H534   1.082       .  S
C531        C536   1.406       .  A
C531        C540   1.403       .  A
C536        H541   1.083       .  S
C536        C537   1.402       .  A
C537        H542   1.083       .  S
C537        C538   1.404       .  A
C538        C539   1.404       .  A
C539        H543   1.083       .  S
C539        C540   1.395       .  A
C540        H544   1.083       .  S
C545        H555   1.083       .  S
C545        C546   1.405       .  A
C545        C550   1.398       .  A
C546        C551   1.480       .  S
C546        C547   1.402       .  A
C547        H552   1.083       .  S
C547        C548   1.396       .  A
C548        H553   1.079       .  S
C548        C549   1.404       .  A
C549        C550   1.405       .  A
C550        H554   1.083       .  S
C551        C556   1.404       .  A
C551        C560   1.407       .  A
C556        H561   1.083       .  S
C556        C557   1.396       .  A
C557        H562   1.083       .  S
C557        C558   1.402       .  A
C558        C559   1.402       .  A
C559        H563   1.083       .  S
C559        C560   1.399       .  A
C560        H564   1.083       .  S
C565        H575   1.082       .  S
C565        C566   1.409       .  A
C565        C570   1.398       .  A
C566        C571   1.496       .  S
C566        C567   1.409       .  A
C567        H572   1.082       .  S
C567        C568   1.402       .  A
C568        H573   1.083   1_554  S
C568        C569   1.404       .  A
C569        C570   1.400       .  A
C570        H574   1.080       .  S
C571        C576   1.407       .  A
C571        C580   1.410       .  A
C576        H581   1.082       .  S
C576        C577   1.398       .  A
C577        H582   1.083       .  S
C577        C578   1.404       .  A
C578        C579   1.404       .  A
C579        H583   1.083       .  S
C579        C580   1.403       .  A
C580        H584   1.082       .  S
C585        H595   1.082       .  S
C585        C586   1.410       .  A
C585        C590   1.403       .  A
C586        C591   1.496       .  S
C586        C587   1.407       .  A
C587        H592   1.082       .  S
C587        C588   1.397       .  A
C588        H593   1.083       .  S
C588        C589   1.408       .  A
C589        C590   1.406       .  A
C590        H594   1.082       .  S
C591        C596   1.408       .  A
C591        C600   1.408       .  A
C596        H601   1.082       .  S
C596        C597   1.402       .  A
C597        H602   1.079       .  S
C597        C598   1.404       .  A
C598        C599   1.407       .  A
C599        H603   1.081   1_554  S
C599        C600   1.397       .  A
C600        H604   1.082       .  S
C605        H615   1.083       .  S
C605        C606   1.402       .  A
C605        C610   1.398       .  A
C606        C611   1.486       .  S
C606        C607   1.405       .  A
C607        H612   1.083       .  S
C607        C608   1.405       .  A
C608        H613   1.082       .  S
C608        C609   1.410       .  A
C609        C610   1.409       .  A
C610        H614   1.082       .  S
C611        C616   1.406       .  A
C611        C620   1.405       .  A
C616        H621   1.083       .  S
C616        C617   1.400       .  A
C617        H622   1.082       .  S
C617        C618   1.402       .  A
C618        C619   1.406       .  A
C619        H623   1.083   1_556  S
C619        C620   1.402       .  A
C620        H624   1.083       .  S
C625        H635   1.082       .  S
C625        C626   1.406       .  A
C625        C630   1.397       .  A
C626        C631   1.486       .  S
C626        C627   1.406       .  A
C627        H632   1.083       .  S
C627        C628   1.396       .  A
C628        H633   1.078       .  S
C628        C629   1.403       .  A
C629        C630   1.405       .  A
C630        H634   1.082       .  S
C631        C636   1.406       .  A
C631        C640   1.405       .  A
C636        H641   1.083       .  S
C636        C637   1.398       .  A
C637        H642   1.083       .  S
C637        C638   1.405       .  A
C638        C639   1.404       .  A
C639        H643   1.081       .  S
C639        C640   1.396       .  A
C640        H644   1.082       .  S
C645        H655   1.082       .  S
C645        C646   1.411       .  A
C645        C650   1.402       .  A
C646        C651   1.500       .  S
C646        C647   1.410       .  A
C647        H652   1.082       .  S
C647        C648   1.401       .  A
C648        H653   1.083       .  S
C648        C649   1.404       .  A
C649        C650   1.403       .  A
C650        H654   1.083       .  S
C651        C656   1.410       .  A
C651        C660   1.412       .  A
C656        H661   1.082       .  S
C656        C657   1.400       .  A
C657        H662   1.083       .  S
C657        C658   1.400       .  A
C658        C659   1.400       .  A
C659        H663   1.083   1_556  S
C659        C660   1.401       .  A
C660        H664   1.082       .  S
C665        H675   1.083       .  S
C665        C666   1.403       .  A
C665        C670   1.399   1_556  A
C666        C671   1.483       .  S
C666        C667   1.405       .  A
C667        H672   1.083       .  S
C667        C668   1.401       .  A
C668        H673   1.083       .  S
C668        C669   1.404       .  A
C669        C670   1.408   1_556  A
C670        H674   1.082       .  S
C671        C676   1.407       .  A
C671        C680   1.404       .  A
C676        H681   1.083       .  S
C676        C677   1.403       .  A
C677        H682   1.083       .  S
C677        C678   1.404       .  A
C678        C679   1.403       .  A
C679        H683   1.083       .  S
C679        C680   1.398       .  A
C680        H684   1.083       .  S
C685        H695   1.083       .  S
C685        C686   1.408       .  A
C685        C690   1.397       .  A
C686        C691   1.489       .  S
C686        C687   1.407       .  A
C687        H692   1.083       .  S
C687        C688   1.399       .  A
C688        H693   1.084       .  S
C688        C689   1.403       .  A
C689        C690   1.401       .  A
C690        H694   1.082       .  S
C691        C696   1.406       .  A
C691        C700   1.408       .  A
C696        H701   1.083       .  S
C696        C697   1.396       .  A
C697        H702   1.083       .  S
C697        C698   1.404       .  A
C698        C699   1.405       .  A
C699        H703   1.083       .  S
C699        C700   1.402       .  A
C700        H704   1.083       .  S
C705        H715   1.083       .  S
C705        C706   1.404       .  A
C705        C710   1.394       .  A
C706        C711   1.481       .  S
C706        C707   1.406       .  A
C707        H712   1.083       .  S
C707        C708   1.398       .  A
C708        H713   1.083       .  S
C708        C709   1.405       .  A
C709        C710   1.406       .  A
C710        H714   1.083       .  S
C711        C716   1.407       .  A
C711        C720   1.405       .  A
C716        H721   1.083       .  S
C716        C717   1.397       .  A
C717        H722   1.083       .  S
C717        C718   1.402       .  A
C718        C719   1.400       .  A
C719        H723   1.079       .  S
C719        C720   1.396       .  A
C720        H724   1.083       .  S
