geometry optimzed in LAMMPS
_audit_creation_date              2020-11-30 
_audit_creation_method            'lammps2cif' 
_symmetry_space_group_name_H-M    'P1' 
_symmetry_Int_Tables_number       1 
_symmetry_cell_setting            triclinic 
loop_ 
_symmetry_equiv_pos_as_xyz 
  x,y,z 
_cell_length_a                    34.96463972 
_cell_length_b                    34.91826334846438 
_cell_length_c                    35.985587005691244 
_cell_angle_alpha                 90.59867921568943 
_cell_angle_beta                  89.98902825606214 
_cell_angle_gamma                 120.0540860820173 
loop_ 
_atom_site_label 
_atom_site_type_symbol 
_atom_site_fract_x 
_atom_site_fract_y 
_atom_site_fract_z 
_atom_site_charge 
O1          O  0.33690420  0.24921567  0.02830342    -0.77600
C2          C  0.24979561  0.24972298  0.11055676     0.83400
O3          O  0.19731025  0.14178507  0.47857110    -0.78700
O4          O  0.16139698  0.25137944  0.02908704    -0.80200
O5          O  0.29930850  0.35694373  0.47842033    -0.80000
O6          O  0.35953185  0.30123685  0.48506599    -0.78600
Zn7        Zn  0.27275171  0.22229984  0.03748695     1.55700
O8          O  0.25268473  0.34396067  0.02534020    -0.80000
Cd9        Cd  0.29836973  0.29653917  0.47375751     1.59700
Cd10       Cd  0.20046192  0.20305348  0.47316304     1.59600
O11         O  0.28390864  0.27873076  0.41833258    -0.80000
O12         O  0.24992339  0.24963725  0.00524369    -1.90500
Cd13       Cd  0.22723890  0.27873396  0.03862523     1.59900
O14         O  0.21573246  0.21966580  0.41774318    -0.80000
O15         O  0.23619739  0.27287949  0.09439558    -0.78600
C16         C  0.22036621  0.13179169  0.99954987     0.83900
C17         C  0.36696335  0.27758928  0.00751876     0.83600
O18         O  0.26346887  0.22748269  0.09244262    -0.77600
C19         C  0.27825677  0.36891287  0.00015668     0.84400
O20         O  0.24791026  0.15896815  0.02309887    -0.77700
C21         C  0.24991298  0.24911055  0.40109872     0.84500
C22         C  0.13197740  0.22355294  0.50698165     0.84800
O23         O  0.13991434  0.20046114  0.48378848    -0.80100
O24         O  0.33696370  0.24922616  0.27832623    -0.77600
C25         C  0.24980368  0.24971852  0.36055687     0.83400
O26         O  0.19738881  0.14178592  0.22857371    -0.78700
O27         O  0.16146117  0.25140085  0.27905521    -0.80200
O28         O  0.29938665  0.35694461  0.22841818    -0.80000
O29         O  0.35957896  0.30120850  0.23505377    -0.78600
Zn30       Zn  0.27280713  0.22230578  0.28750018     1.55700
O31         O  0.25277414  0.34397770  0.27534340    -0.80000
Cd32       Cd  0.29842443  0.29652870  0.22374904     1.59700
Cd33       Cd  0.20051700  0.20304323  0.22317110     1.59600
O34         O  0.28393779  0.27872853  0.16832349    -0.80000
O35         O  0.24998117  0.24963603  0.25524354    -1.90500
Cd36       Cd  0.22729735  0.27874377  0.28861115     1.59900
O37         O  0.21576164  0.21966348  0.16775135    -0.80000
O38         O  0.23621273  0.27287292  0.34438305    -0.78600
C39         C  0.22044779  0.13179766  0.24955364     0.83900
C40         C  0.36701617  0.27758031  0.25752454     0.83600
O41         O  0.26349555  0.22748507  0.34245532    -0.77600
C42         C  0.27834963  0.36892589  0.25016019     0.84400
O43         O  0.24798305  0.15897438  0.27310805    -0.77700
C44         C  0.24993077  0.24911258  0.15109824     0.84500
C45         C  0.13203185  0.22354711  0.25697196     0.84800
O46         O  0.13996053  0.20042990  0.23380057    -0.80100
O47         O  0.46239862  0.22745949  0.09238849    -0.77600
C48         C  0.40899069  0.27758919  0.00750200     0.83400
O49         O  0.44285166  0.14181776  0.47849594    -0.78700
O50         O  0.49319395  0.27871464  0.41825422    -0.80200
O51         O  0.08959991  0.34401715  0.02528723    -0.80000
O52         O  0.03506715  0.27291795  0.09430354    -0.78600
Zn53       Zn  0.44792107  0.22231616  0.03743457     1.55700
O54         O  0.05598446  0.35695889  0.47834022    -0.80000
Cd55       Cd  0.04985894  0.27878396  0.03853608     1.59700
Cd56       Cd  0.50098391  0.20308380  0.47309317     1.59600
O57         O  0.08835590  0.25144689  0.02900947    -0.80000
O58         O  0.49808138  0.24965815  0.00516682    -1.90500
Cd59       Cd  0.49652401  0.29653384  0.47367604     1.59900
O60         O  0.05891049  0.20046088  0.48376526    -0.80000
O61         O  0.44005177  0.30121058  0.48501341    -0.78600
C62         C  0.40979273  0.13182271  0.99947646     0.83900
C63         C  0.49832336  0.24972238  0.11048367     0.83600
O64         O  0.41068818  0.24923613  0.02829480    -0.77600
C65         C  0.08898512  0.36895736  0.00010092     0.84400
O66         O  0.40942108  0.15899620  0.02302655    -0.77700
C67         C  0.08993562  0.22357368  0.50695286     0.84500
C68         C  0.99761407  0.24912024  0.40102459     0.84800
O69         O  0.50237616  0.21970239  0.41767221    -0.80100
O70         O  0.46243344  0.22745525  0.34238060    -0.77600
C71         C  0.40904111  0.27757555  0.25750708     0.83400
O72         O  0.44291746  0.14180463  0.22849038    -0.78700
O73         O  0.49320670  0.27870614  0.16826657    -0.80200
O74         O  0.08967230  0.34398088  0.27526973    -0.80000
O75         O  0.03510057  0.27291778  0.34431076    -0.78600
Zn76       Zn  0.44796909  0.22229412  0.28742784     1.55700
O77         O  0.05605014  0.35694509  0.22834146    -0.80000
Cd78       Cd  0.04990613  0.27875809  0.28854150     1.59700
Cd79       Cd  0.50103748  0.20307967  0.22307786     1.59600
O80         O  0.08838965  0.25140371  0.27902647    -0.80000
O81         O  0.49813288  0.24964347  0.25516572    -1.90500
Cd82       Cd  0.49657726  0.29652953  0.22368859     1.59900
O83         O  0.05897647  0.20047329  0.23373673    -0.80000
O84         O  0.44011603  0.30122024  0.23503794    -0.78600
C85         C  0.40986373  0.13180004  0.24948012     0.83900
C86         C  0.49834983  0.24972643  0.36048363     0.83600
O87         O  0.41072681  0.24920158  0.27828039    -0.77600
C88         C  0.08905957  0.36892807  0.25008876     0.84400
O89         O  0.40948875  0.15896955  0.27303231    -0.77700
C90         C  0.08998543  0.22355867  0.25694592     0.84500
C91         C  0.99761079  0.24910964  0.15102437     0.84800
O92         O  0.50238942  0.21969421  0.16765896    -0.80100
O93         O  0.34026183  0.09109978  0.47179731    -0.77600
C94         C  0.24975008  0.00106399  0.38650448     0.83400
O95         O  0.19790908  0.05773476  0.01545484    -0.78700
O96         O  0.15662286  0.40872906  0.46987686    -0.80200
O97         O  0.29933691  0.44300123  0.01581787    -0.80000
O98         O  0.35822329  0.05774525  0.01535964    -0.78600
Zn99       Zn  0.27560180  0.05286968  0.45968256     1.55700
O100        O  0.25031772  0.40863795  0.46997547    -0.80000
Cd101      Cd  0.29708528  0.00107582  0.02328599     1.59700
Cd102      Cd  0.20238287  0.00106929  0.02333921     1.59600
O103        O  0.28211084  0.00188861  0.07891206    -0.80000
O104        O  0.24987911  0.00139124  0.49112899    -1.90500
Cd105      Cd  0.22315410  0.44796117  0.45826394     1.59900
O106        O  0.21821220  0.00187366  0.07894960    -0.80000
O107        O  0.23111114  0.46373967  0.40251092    -0.78600
C108        C  0.22067447  0.09040092  0.49426953     0.84500
C109        C  0.36809237  0.09042570  0.49420643     0.83600
O110        O  0.26791077  0.03746802  0.40469760    -0.77600
C111        C  0.27778559  0.40999786  0.99397484     0.84400
O112        O  0.24914786  0.09107299  0.47181330    -0.77700
C113        C  0.25019226  0.00192751  0.09592164     0.84500
C114        C  0.13054489  0.41005062  0.99393665     0.84800
O115        O  0.14204800  0.44299121  0.01586551    -0.80100
O116        O  0.34034948  0.09106799  0.22178084    -0.77600
C117        C  0.24978063  0.00106806  0.13650454     0.83400
O118        O  0.19795650  0.05772240  0.26542471    -0.78700
O119        O  0.15672682  0.40868433  0.21989894    -0.80200
O120        O  0.29938150  0.44299234  0.26585989    -0.80000
O121        O  0.35827646  0.05773954  0.26539357    -0.78600
Zn122      Zn  0.27568260  0.05286589  0.20968593     1.55700
O123        O  0.25046230  0.40867226  0.21994260    -0.80000
Cd124      Cd  0.29713428  0.00107201  0.27331475     1.59700
Cd125      Cd  0.20242670  0.00105564  0.27331007     1.59600
O126        O  0.28212780  0.00189187  0.32893346    -0.80000
O127        O  0.24994783  0.00138447  0.24112885    -1.90500
Cd128      Cd  0.22324890  0.44795730  0.20826043     1.59900
O129        O  0.21821716  0.00185303  0.32892801    -0.80000
O130        O  0.23115957  0.46374235  0.15250845    -0.78600
C131        C  0.22076191  0.09040962  0.24427114     0.83900
C132        C  0.36816516  0.09040199  0.24421245     0.83600
O133        O  0.26795271  0.03747035  0.15470010    -0.77600
C134        C  0.27788645  0.41001471  0.24397911     0.84400
O135        O  0.24926190  0.09109386  0.22183965    -0.77700
C136        C  0.25019116  0.50191962  0.34592152     0.84500
C137        C  0.13062217  0.41001922  0.24392379     0.84800
O138        O  0.14209442  0.44298208  0.26581908    -0.80100
O139        O  0.33690422  0.24921568  0.52830349    -0.77600
C140        C  0.24979558  0.24972300  0.61055675     0.83400
O141        O  0.19731025  0.14178508  0.97857107    -0.78700
O142        O  0.16139692  0.25137941  0.52908702    -0.80200
O143        O  0.29930857  0.35694365  0.97842035    -0.80000
O144        O  0.35953184  0.30123667  0.98506580    -0.78600
Zn145      Zn  0.27275161  0.22229988  0.53748703     1.55700
O146        O  0.25268469  0.34396072  0.52534022    -0.80000
Cd147      Cd  0.29836985  0.29653916  0.97375760     1.59700
Cd148      Cd  0.20046181  0.20305350  0.97316311     1.59600
O149        O  0.28390861  0.27873053  0.91833264    -0.80000
O150        O  0.24992334  0.24963725  0.50524367    -1.90500
Cd151      Cd  0.22723899  0.27873399  0.53862509     1.59900
O152        O  0.21573225  0.21966583  0.91774313    -0.80000
O153        O  0.23619730  0.27287944  0.59439552    -0.78600
C154        C  0.22036626  0.13179175  0.49954987     0.83900
C155        C  0.36696334  0.27758931  0.50751886     0.83600
O156        O  0.26346891  0.22748277  0.59244261    -0.77600
C157        C  0.27825677  0.36891294  0.50015673     0.84400
O158        O  0.24791027  0.15896826  0.52309887    -0.77700
C159        C  0.24991287  0.24911050  0.90109870     0.84500
C160        C  0.13197745  0.22355297  0.00698173     0.84800
O161        O  0.13991434  0.20046110  0.98378858    -0.80100
O162        O  0.33696372  0.24922614  0.77832615    -0.77600
C163        C  0.24980358  0.24971856  0.86055680     0.83400
O164        O  0.19738889  0.14178595  0.72857357    -0.78700
O165        O  0.16146119  0.25140087  0.77905526    -0.80200
O166        O  0.29938657  0.35694452  0.72841823    -0.80000
O167        O  0.35957899  0.30120846  0.73505370    -0.78600
Zn168      Zn  0.27280703  0.22230579  0.78750003     1.55700
O169        O  0.25277425  0.34397778  0.77534355    -0.80000
Cd170      Cd  0.29842419  0.29652846  0.72374914     1.59700
Cd171      Cd  0.20051690  0.20304325  0.72317120     1.59600
O172        O  0.28393772  0.27872859  0.66832356    -0.80000
O173        O  0.24998108  0.24963600  0.75524364    -1.90500
Cd174      Cd  0.22729724  0.27874379  0.78861124     1.59900
O175        O  0.21576170  0.21966346  0.66775143    -0.80000
O176        O  0.23621259  0.27287294  0.84438300    -0.78600
C177        C  0.22044779  0.13179767  0.74955355     0.83900
C178        C  0.36701623  0.27758032  0.75752451     0.83600
O179        O  0.26349542  0.22748511  0.84245518    -0.77600
C180        C  0.27834969  0.36892591  0.75016027     0.84400
O181        O  0.24798299  0.15897440  0.77310798    -0.77700
C182        C  0.24993076  0.24911260  0.65109829     0.84500
C183        C  0.13203190  0.22354712  0.75697198     0.84800
O184        O  0.13996056  0.20042991  0.73380062    -0.80100
O185        O  0.46239854  0.22745958  0.59238841    -0.77600
C186        C  0.40899064  0.27758915  0.50750196     0.83400
O187        O  0.44285165  0.14181779  0.97849599    -0.78700
O188        O  0.49319389  0.27871464  0.91825431    -0.80200
O189        O  0.08960000  0.34401720  0.52528725    -0.80000
O190        O  0.03506712  0.27291790  0.59430350    -0.78600
Zn191      Zn  0.44792097  0.22231618  0.53743465     1.55700
O192        O  0.05598448  0.35695891  0.97834020    -0.80000
Cd193      Cd  0.04985908  0.27878398  0.53853617     1.59700
Cd194      Cd  0.50098402  0.20308382  0.97309302     1.59600
O195        O  0.08835584  0.25144668  0.52900961    -0.80000
O196        O  0.49808142  0.24965822  0.50516693    -1.90500
Cd197      Cd  0.49652413  0.29653387  0.97367614     1.59900
O198        O  0.05891055  0.20046085  0.98376531    -0.80000
O199        O  0.44005190  0.30121066  0.98501348    -0.78600
C200        C  0.40979273  0.13182270  0.49947638     0.83900
C201        C  0.49832329  0.24972245  0.61048362     0.83600
O202        O  0.41068813  0.24923606  0.52829476    -0.77600
C203        C  0.08898514  0.36895735  0.50010091     0.84400
O204        O  0.40942115  0.15899615  0.52302657    -0.77700
C205        C  0.08993568  0.22357375  0.00695285     0.84500
C206        C  0.99761406  0.24912031  0.90102462     0.84800
O207        O  0.50237611  0.21970238  0.91767214    -0.80100
O208        O  0.46243339  0.22745533  0.84238070    -0.77600
C209        C  0.40904117  0.27757560  0.75750710     0.83400
O210        O  0.44291756  0.14180464  0.72849031    -0.78700
O211        O  0.49320654  0.27870607  0.66826663    -0.80200
O212        O  0.08967224  0.34398088  0.77526963    -0.80000
O213        O  0.03510065  0.27291780  0.84431079    -0.78600
Zn214      Zn  0.44796920  0.22229413  0.78742792     1.55700
O215        O  0.05605012  0.35694516  0.72834137    -0.80000
Cd216      Cd  0.04990626  0.27875812  0.78854138     1.59700
Cd217      Cd  0.50103762  0.20307971  0.72307793     1.59600
O218        O  0.08838974  0.25140368  0.77902651    -0.80000
O219        O  0.49813296  0.24964349  0.75516578    -1.90500
Cd220      Cd  0.49657714  0.29652956  0.72368869     1.59900
O221        O  0.05897663  0.20047338  0.73373667    -0.80000
O222        O  0.44011605  0.30122036  0.73503800    -0.78600
C223        C  0.40986380  0.13180006  0.74948002     0.83900
C224        C  0.49834981  0.24972653  0.86048369     0.83600
O225        O  0.41072692  0.24920156  0.77828032    -0.77600
C226        C  0.08905955  0.36892811  0.75008867     0.84400
O227        O  0.40948877  0.15896961  0.77303214    -0.77700
C228        C  0.08998553  0.22355871  0.75694593     0.84500
C229        C  0.99761072  0.24910966  0.65102435     0.84800
O230        O  0.50238953  0.21969430  0.66765890    -0.80100
O231        O  0.34026189  0.09109977  0.97179742    -0.77600
C232        C  0.24975007  0.00106400  0.88650453     0.83400
O233        O  0.19790905  0.05773481  0.51545482    -0.78700
O234        O  0.15662281  0.40872907  0.96987691    -0.80200
O235        O  0.29933682  0.44300119  0.51581796    -0.80000
O236        O  0.35822326  0.05774528  0.51535951    -0.78600
Zn237      Zn  0.27560193  0.05286972  0.95968265     1.55700
O238        O  0.25031765  0.40863796  0.96997546    -0.80000
Cd239      Cd  0.29708538  0.00107584  0.52328586     1.59700
Cd240      Cd  0.20238273  0.00106931  0.52333909     1.59600
O241        O  0.28211084  0.00188864  0.57891208    -0.80000
O242        O  0.24987916  0.00139119  0.99112895    -1.90500
Cd243      Cd  0.22315397  0.44796120  0.95826402     1.59900
O244        O  0.21821215  0.00187368  0.57894963    -0.80000
O245        O  0.23111128  0.46373970  0.90251097    -0.78600
C246        C  0.22067441  0.09040085  0.99426951     0.84500
C247        C  0.36809241  0.09042569  0.99420657     0.83600
O248        O  0.26791090  0.03746805  0.90469765    -0.77600
C249        C  0.27778560  0.40999788  0.49397491     0.84400
O250        O  0.24914785  0.09107300  0.97181331    -0.77700
C251        C  0.25019223  0.00192753  0.59592165     0.84500
C252        C  0.13054493  0.41005060  0.49393660     0.84800
O253        O  0.14204805  0.44299113  0.51586552    -0.80100
O254        O  0.34034955  0.09106804  0.72178082    -0.77600
C255        C  0.24978058  0.00106808  0.63650458     0.83400
O256        O  0.19795657  0.05772247  0.76542476    -0.78700
O257        O  0.15672689  0.40868432  0.71989900    -0.80200
O258        O  0.29938161  0.44299244  0.76585983    -0.80000
O259        O  0.35827649  0.05773955  0.76539354    -0.78600
Zn260      Zn  0.27568271  0.05286591  0.70968583     1.55700
O261        O  0.25046242  0.40867229  0.71994254    -0.80000
Cd262      Cd  0.29713438  0.00107204  0.77331482     1.59700
Cd263      Cd  0.20242657  0.00105565  0.77331018     1.59600
O264        O  0.28212783  0.00189189  0.82893349    -0.80000
O265        O  0.24994781  0.00138452  0.74112895    -1.90500
Cd266      Cd  0.22324882  0.44795733  0.70826053     1.59900
O267        O  0.21821718  0.00185306  0.82892805    -0.80000
O268        O  0.23115959  0.46374231  0.65250852    -0.78600
C269        C  0.22076195  0.09040964  0.74427114     0.83900
C270        C  0.36816522  0.09040201  0.74421239     0.83600
O271        O  0.26795265  0.03747037  0.65470010    -0.77600
C272        C  0.27788654  0.41001474  0.74397909     0.84400
O273        O  0.24926199  0.09109387  0.72183969    -0.77700
C274        C  0.25019121  0.50191965  0.84592156     0.84500
C275        C  0.13062223  0.41001925  0.74392380     0.84800
O276        O  0.14209454  0.44298207  0.76581913    -0.80100
O277        O  0.33690421  0.74921562  0.02830339    -0.77600
C278        C  0.24979555  0.74972287  0.11055676     0.83400
O279        O  0.19731028  0.64178520  0.47857115    -0.78700
O280        O  0.16139695  0.75137936  0.02908703    -0.80200
O281        O  0.29930856  0.85694365  0.47842033    -0.80000
O282        O  0.35953191  0.80123680  0.48506595    -0.78600
Zn283      Zn  0.27275167  0.72229998  0.03748695     1.55700
O284        O  0.25268469  0.84396080  0.02534023    -0.80000
Cd285      Cd  0.29836981  0.79653905  0.47375750     1.59700
Cd286      Cd  0.20046190  0.70305365  0.47316305     1.59600
O287        O  0.28390867  0.77873059  0.41833256    -0.80000
O288        O  0.24992338  0.74963738  0.00524371    -1.90500
Cd289      Cd  0.22723907  0.77873413  0.03862523     1.59900
O290        O  0.21573231  0.71966592  0.41774320    -0.80000
O291        O  0.23619725  0.77287932  0.09439559    -0.78600
C292        C  0.22036618  0.63179168  0.99954988     0.83900
C293        C  0.36696334  0.77758930  0.00751876     0.83600
O294        O  0.26346888  0.72748266  0.09244262    -0.77600
C295        C  0.27825678  0.86891297  0.00015671     0.84400
O296        O  0.24791014  0.65896815  0.02309892    -0.77700
C297        C  0.24991290  0.74911054  0.40109872     0.84500
C298        C  0.13197739  0.72355286  0.50698170     0.84800
O299        O  0.13991431  0.70046105  0.48378851    -0.80100
O300        O  0.33696383  0.74922631  0.27832625    -0.77600
C301        C  0.24980355  0.74971857  0.36055687     0.83400
O302        O  0.19738893  0.64178595  0.22857365    -0.78700
O303        O  0.16146124  0.75140085  0.27905527    -0.80200
O304        O  0.29938651  0.85694451  0.22841817    -0.80000
O305        O  0.35957908  0.80120863  0.23505377    -0.78600
Zn306      Zn  0.27280711  0.72230592  0.28750018     1.55700
O307        O  0.25277414  0.84397787  0.27534342    -0.80000
Cd308      Cd  0.29842427  0.79652858  0.22374904     1.59700
Cd309      Cd  0.20051685  0.70304312  0.22317110     1.59600
O310        O  0.28393777  0.77872866  0.16832345    -0.80000
O311        O  0.24998108  0.74963596  0.25524355    -1.90500
Cd312      Cd  0.22729732  0.77874393  0.28861115     1.59900
O313        O  0.21576172  0.71966349  0.16775140    -0.80000
O314        O  0.23621265  0.77287303  0.34438307    -0.78600
C315        C  0.22044782  0.63179766  0.24955363     0.83900
C316        C  0.36701631  0.77758045  0.25752457     0.83600
O317        O  0.26349548  0.72748519  0.34245529    -0.77600
C318        C  0.27834967  0.86892595  0.25016021     0.84400
O319        O  0.24798297  0.65897433  0.27310814    -0.77700
C320        C  0.24993080  0.74911259  0.15109824     0.84500
C321        C  0.13203196  0.72354720  0.25697196     0.84800
O322        O  0.13996060  0.70043002  0.23380052    -0.80100
O323        O  0.46239863  0.72745973  0.09238845    -0.77600
C324        C  0.40899066  0.77758920  0.00750199     0.83400
O325        O  0.44285162  0.64181783  0.47849592    -0.78700
O326        O  0.49319398  0.77871472  0.41825420    -0.80200
O327        O  0.08960005  0.84401715  0.02528716    -0.80000
O328        O  0.03506722  0.77291804  0.09430358    -0.78600
Zn329      Zn  0.44792104  0.72231630  0.03743457     1.55700
O330        O  0.05598448  0.85695877  0.47834016    -0.80000
Cd331      Cd  0.04985915  0.77878410  0.03853608     1.59700
Cd332      Cd  0.50098396  0.70308369  0.47309317     1.59600
O333        O  0.08835595  0.75144681  0.02900953    -0.80000
O334        O  0.49808137  0.74965824  0.00516685    -1.90500
Cd335      Cd  0.49652407  0.79653372  0.47367604     1.59900
O336        O  0.05891059  0.70046094  0.48376523    -0.80000
O337        O  0.44005191  0.80121065  0.48501345    -0.78600
C338        C  0.40979277  0.63182275  0.99947644     0.83900
C339        C  0.49832338  0.74972252  0.11048367     0.83600
O340        O  0.41068815  0.74923611  0.02829472    -0.77600
C341        C  0.08898514  0.86895733  0.00010089     0.84400
O342        O  0.40942115  0.65899619  0.02302660    -0.77700
C343        C  0.08993564  0.72357370  0.50695288     0.84500
C344        C  0.99761408  0.74912030  0.40102459     0.84800
O345        O  0.50237603  0.71970236  0.41767222    -0.80100
O346        O  0.46243339  0.72745538  0.34238062    -0.77600
C347        C  0.40904122  0.77757567  0.25750710     0.83400
O348        O  0.44291754  0.64180468  0.22849044    -0.78700
O349        O  0.49320647  0.77870603  0.16826660    -0.80200
O350        O  0.08967228  0.84398097  0.27526978    -0.80000
O351        O  0.03510065  0.77291765  0.34431077    -0.78600
Zn352      Zn  0.44796916  0.72229403  0.28742784     1.55700
O353        O  0.05605015  0.85694515  0.22834145    -0.80000
Cd354      Cd  0.04990621  0.77875799  0.28854150     1.59700
Cd355      Cd  0.50103758  0.70307958  0.22307786     1.59600
O356        O  0.08838987  0.75140387  0.27902647    -0.80000
O357        O  0.49813294  0.74964341  0.25516568    -1.90500
Cd358      Cd  0.49657721  0.79652966  0.22368860     1.59900
O359        O  0.05897666  0.70047344  0.23373673    -0.80000
O360        O  0.44011601  0.80122026  0.23503786    -0.78600
C361        C  0.40986375  0.63180008  0.24948012     0.83900
C362        C  0.49834981  0.74972645  0.36048364     0.83600
O363        O  0.41072701  0.74920172  0.27828042    -0.77600
C364        C  0.08905958  0.86892816  0.25008878     0.84400
O365        O  0.40948873  0.65896962  0.27303226    -0.77700
C366        C  0.08998561  0.72355883  0.25694590     0.84500
C367        C  0.99761074  0.74910966  0.15102438     0.84800
O368        O  0.50238961  0.71969434  0.16765894    -0.80100
O369        O  0.34026183  0.59109991  0.47179735    -0.77600
C370        C  0.24974994  0.50106384  0.38650448     0.83400
O371        O  0.19790897  0.55773473  0.01545475    -0.78700
O372        O  0.15662284  0.90872923  0.46987685    -0.80200
O373        O  0.29933687  0.94300129  0.01581787    -0.80000
O374        O  0.35822331  0.55774542  0.01535964    -0.78600
Zn375      Zn  0.27560185  0.55286958  0.45968257     1.55700
O376        O  0.25031759  0.90863793  0.46997556    -0.80000
Cd377      Cd  0.29708546  0.50107597  0.02328599     1.59700
Cd378      Cd  0.20238280  0.50106942  0.02333921     1.59600
O379        O  0.28211093  0.50188879  0.07891205    -0.80000
O380        O  0.24987911  0.50139110  0.49112896    -1.90500
Cd381      Cd  0.22315406  0.94796134  0.45826394     1.59900
O382        O  0.21821225  0.50187385  0.07894960    -0.80000
O383        O  0.23111136  0.96373983  0.40251093    -0.78600
C384        C  0.22067442  0.59040089  0.49426948     0.84500
C385        C  0.36809237  0.59042578  0.49420643     0.83600
O386        O  0.26791082  0.53746787  0.40469762    -0.77600
C387        C  0.27778564  0.90999791  0.99397483     0.84400
O388        O  0.24914785  0.59107305  0.47181324    -0.77700
C389        C  0.25019232  0.50192767  0.09592163     0.84500
C390        C  0.13054494  0.91005068  0.99393662     0.84800
O391        O  0.14204806  0.94299126  0.01586551    -0.80100
O392        O  0.34034951  0.59106790  0.22178078    -0.77600
C393        C  0.24978063  0.50106813  0.13650453     0.83400
O394        O  0.19795651  0.55772236  0.26542470    -0.78700
O395        O  0.15672684  0.90868423  0.21989897    -0.80200
O396        O  0.29938166  0.94299243  0.26585989    -0.80000
O397        O  0.35827646  0.55773956  0.26539361    -0.78600
Zn398      Zn  0.27568265  0.55286578  0.20968593     1.55700
O399        O  0.25046246  0.90867236  0.21994260    -0.80000
Cd400      Cd  0.29713444  0.50107214  0.27331475     1.59700
Cd401      Cd  0.20242652  0.50105551  0.27331007     1.59600
O402        O  0.28212769  0.50189173  0.32893347    -0.80000
O403        O  0.24994784  0.50138454  0.24112890    -1.90500
Cd404      Cd  0.22324875  0.94795718  0.20826043     1.59900
O405        O  0.21821717  0.50185315  0.32892799    -0.80000
O406        O  0.23115959  0.96374228  0.15250848    -0.78600
C407        C  0.22076194  0.59040957  0.24427113     0.83900
C408        C  0.36816518  0.59040198  0.24421245     0.83600
O409        O  0.26795266  0.53747038  0.15470013    -0.77600
C410        C  0.27788664  0.91001483  0.24397909     0.84400
O411        O  0.24926195  0.59109379  0.22183966    -0.77700
C412        C  0.25019124  0.00191970  0.34592153     0.84500
C413        C  0.13062226  0.91001928  0.24392378     0.84800
O414        O  0.14209462  0.94298220  0.26581902    -0.80100
O415        O  0.33690423  0.74921565  0.52830347    -0.77600
C416        C  0.24979556  0.74972291  0.61055674     0.83400
O417        O  0.19731029  0.64178508  0.97857101    -0.78700
O418        O  0.16139693  0.75137932  0.52908703    -0.80200
O419        O  0.29930849  0.85694367  0.97842036    -0.80000
O420        O  0.35953180  0.80123675  0.98506589    -0.78600
Zn421      Zn  0.27275165  0.72229975  0.53748703     1.55700
O422        O  0.25268476  0.84396072  0.52534022    -0.80000
Cd423      Cd  0.29836968  0.79653907  0.97375760     1.59700
Cd424      Cd  0.20046199  0.70305365  0.97316311     1.59600
O425        O  0.28390861  0.77873068  0.91833262    -0.80000
O426        O  0.24992343  0.74963733  0.50524372    -1.90500
Cd427      Cd  0.22723896  0.77873413  0.53862509     1.59900
O428        O  0.21573239  0.71966587  0.91774314    -0.80000
O429        O  0.23619734  0.77287940  0.59439550    -0.78600
C430        C  0.22036623  0.63179174  0.49954989     0.83900
C431        C  0.36696341  0.77758932  0.50751884     0.83600
O432        O  0.26346879  0.72748257  0.59244262    -0.77600
C433        C  0.27825683  0.86891292  0.50015672     0.84400
O434        O  0.24791033  0.65896816  0.52309887    -0.77700
C435        C  0.24991297  0.74911054  0.90109869     0.84500
C436        C  0.13197739  0.72355285  0.00698175     0.84800
O437        O  0.13991428  0.70046100  0.98378857    -0.80100
O438        O  0.33696375  0.74922635  0.77832613    -0.77600
C439        C  0.24980372  0.74971861  0.86055680     0.83400
O440        O  0.19738886  0.64178595  0.72857361    -0.78700
O441        O  0.16146119  0.75140089  0.77905533    -0.80200
O442        O  0.29938659  0.85694457  0.72841828    -0.80000
O443        O  0.35957906  0.80120867  0.73505370    -0.78600
Zn444      Zn  0.27280721  0.72230594  0.78750003     1.55700
O445        O  0.25277421  0.84397790  0.77534354    -0.80000
Cd446      Cd  0.29842437  0.79652861  0.72374914     1.59700
Cd447      Cd  0.20051694  0.70304315  0.72317120     1.59600
O448        O  0.28393780  0.77872861  0.66832353    -0.80000
O449        O  0.24998109  0.74963600  0.75524361    -1.90500
Cd450      Cd  0.22729743  0.77874396  0.78861124     1.59900
O451        O  0.21576168  0.71966359  0.66775147    -0.80000
O452        O  0.23621281  0.77287306  0.84438301    -0.78600
C453        C  0.22044776  0.63179765  0.74955357     0.83900
C454        C  0.36701626  0.77758051  0.75752451     0.83600
O455        O  0.26349563  0.72748522  0.84245516    -0.77600
C456        C  0.27834965  0.86892596  0.75016026     0.84400
O457        O  0.24798304  0.65897438  0.77310798    -0.77700
C458        C  0.24993079  0.74911264  0.65109829     0.84500
C459        C  0.13203191  0.72354724  0.75697197     0.84800
O460        O  0.13996058  0.70043005  0.73380058    -0.80100
O461        O  0.46239866  0.72745963  0.59238839    -0.77600
C462        C  0.40899071  0.77758918  0.50750199     0.83400
O463        O  0.44285167  0.64181780  0.97849598    -0.78700
O464        O  0.49319390  0.77871457  0.91825433    -0.80200
O465        O  0.08959992  0.84401720  0.52528729    -0.80000
O466        O  0.03506718  0.77291809  0.59430351    -0.78600
Zn467      Zn  0.44792113  0.72231631  0.53743465     1.55700
O468        O  0.05598439  0.85695882  0.97834026    -0.80000
Cd469      Cd  0.04985902  0.77878413  0.53853616     1.59700
Cd470      Cd  0.50098387  0.70308373  0.97309303     1.59600
O471        O  0.08835584  0.75144676  0.52900959    -0.80000
O472        O  0.49808137  0.74965812  0.50516690    -1.90500
Cd473      Cd  0.49652394  0.79653376  0.97367613     1.59900
O474        O  0.05891058  0.70046091  0.98376524    -0.80000
O475        O  0.44005186  0.80121075  0.98501351    -0.78600
C476        C  0.40979270  0.63182275  0.49947640     0.83900
C477        C  0.49832339  0.74972248  0.61048362     0.83600
O478        O  0.41068819  0.74923614  0.52829479    -0.77600
C479        C  0.08898512  0.86895734  0.50010092     0.84400
O480        O  0.40942111  0.65899615  0.52302662    -0.77700
C481        C  0.08993566  0.72357368  0.00695286     0.84500
C482        C  0.99761410  0.74912025  0.90102462     0.84800
O483        O  0.50237612  0.71970231  0.91767214    -0.80100
O484        O  0.46243343  0.72745534  0.84238069    -0.77600
C485        C  0.40904120  0.77757570  0.75750710     0.83400
O486        O  0.44291744  0.64180469  0.72849025    -0.78700
O487        O  0.49320662  0.77870608  0.66826662    -0.80200
O488        O  0.08967231  0.84398095  0.77526966    -0.80000
O489        O  0.03510065  0.77291777  0.84431079    -0.78600
Zn490      Zn  0.44796925  0.72229405  0.78742793     1.55700
O491        O  0.05605018  0.85694513  0.72834135    -0.80000
Cd492      Cd  0.04990608  0.77875802  0.78854137     1.59700
Cd493      Cd  0.50103744  0.70307961  0.72307793     1.59600
O494        O  0.08838971  0.75140382  0.77902652    -0.80000
O495        O  0.49813285  0.74964342  0.75516574    -1.90500
Cd496      Cd  0.49657733  0.79652969  0.72368869     1.59900
O497        O  0.05897658  0.70047353  0.73373667    -0.80000
O498        O  0.44011608  0.80122034  0.73503796    -0.78600
C499        C  0.40986374  0.63180012  0.74948000     0.83900
C500        C  0.49834984  0.74972650  0.86048370     0.83600
O501        O  0.41072689  0.74920166  0.77828038    -0.77600
C502        C  0.08905956  0.86892816  0.75008870     0.84400
O503        O  0.40948882  0.65896967  0.77303219    -0.77700
C504        C  0.08998553  0.72355887  0.75694591     0.84500
C505        C  0.99761077  0.74910964  0.65102435     0.84800
O506        O  0.50238950  0.71969425  0.66765893    -0.80100
O507        O  0.34026187  0.59109988  0.97179741    -0.77600
C508        C  0.24975004  0.50106387  0.88650453     0.83400
O509        O  0.19790912  0.55773477  0.51545480    -0.78700
O510        O  0.15662291  0.90872916  0.96987693    -0.80200
O511        O  0.29933696  0.94300128  0.51581787    -0.80000
O512        O  0.35822327  0.55774531  0.51535945    -0.78600
Zn513      Zn  0.27560176  0.55286961  0.95968266     1.55700
O514        O  0.25031772  0.90863792  0.96997541    -0.80000
Cd515      Cd  0.29708524  0.50107574  0.52328587     1.59700
Cd516      Cd  0.20238280  0.50106918  0.52333908     1.59600
O517        O  0.28211101  0.50188878  0.57891210    -0.80000
O518        O  0.24987908  0.50139117  0.99112901    -1.90500
Cd519      Cd  0.22315405  0.94796110  0.95826402     1.59900
O520        O  0.21821234  0.50187382  0.57894960    -0.80000
O521        O  0.23111121  0.96373983  0.90251098    -0.78600
C522        C  0.22067444  0.59040088  0.99426952     0.84500
C523        C  0.36809242  0.59042579  0.99420652     0.83600
O524        O  0.26791070  0.53746790  0.90469766    -0.77600
C525        C  0.27778560  0.90999788  0.49397490     0.84400
O526        O  0.24914794  0.59107306  0.97181338    -0.77700
C527        C  0.25019239  0.50192765  0.59592166     0.84500
C528        C  0.13054490  0.91005067  0.49393664     0.84800
O529        O  0.14204799  0.94299124  0.51586551    -0.80100
O530        O  0.34034943  0.59106794  0.72178087    -0.77600
C531        C  0.24978065  0.50106810  0.63650457     0.83400
O532        O  0.19795646  0.55772237  0.76542474    -0.78700
O533        O  0.15672679  0.90868430  0.71989900    -0.80200
O534        O  0.29938156  0.94299244  0.76585981    -0.80000
O535        O  0.35827655  0.55773952  0.76539351    -0.78600
Zn536      Zn  0.27568275  0.55286580  0.70968582     1.55700
O537        O  0.25046238  0.90867232  0.71994253    -0.80000
Cd538      Cd  0.29713435  0.50107217  0.77331482     1.59700
Cd539      Cd  0.20242664  0.50105555  0.77331018     1.59600
O540        O  0.28212771  0.50189175  0.82893345    -0.80000
O541        O  0.24994791  0.50138460  0.74112894    -1.90500
Cd542      Cd  0.22324884  0.94795721  0.70826053     1.59900
O543        O  0.21821720  0.50185318  0.82892810    -0.80000
O544        O  0.23115953  0.96374231  0.65250854    -0.78600
C545        C  0.22076185  0.59040955  0.74427113     0.83900
C546        C  0.36816516  0.59040200  0.74421243     0.83600
O547        O  0.26795273  0.53747034  0.65470013    -0.77600
C548        C  0.27788650  0.91001479  0.74397906     0.84400
O549        O  0.24926190  0.59109377  0.72183968    -0.77700
C550        C  0.25019128  0.00191973  0.84592155     0.84500
C551        C  0.13062215  0.91001929  0.74392378     0.84800
O552        O  0.14209445  0.94298211  0.76581913    -0.80100
O553        O  0.83690420  0.24921570  0.02830337    -0.77600
C554        C  0.74979561  0.24972298  0.11055676     0.83400
O555        O  0.69731026  0.14178507  0.47857110    -0.78700
O556        O  0.66139698  0.25137944  0.02908704    -0.80200
O557        O  0.79930851  0.35694373  0.47842033    -0.80000
O558        O  0.85953185  0.30123685  0.48506599    -0.78600
Zn559      Zn  0.77275171  0.22229984  0.03748695     1.55700
O560        O  0.75268473  0.34396068  0.02534021    -0.80000
Cd561      Cd  0.79836974  0.29653917  0.47375751     1.59700
Cd562      Cd  0.70046192  0.20305348  0.47316304     1.59600
O563        O  0.78390865  0.27873076  0.41833258    -0.80000
O564        O  0.74992339  0.24963725  0.00524369    -1.90500
Cd565      Cd  0.72723891  0.27873396  0.03862523     1.59900
O566        O  0.71573246  0.21966580  0.41774318    -0.80000
O567        O  0.73619739  0.27287949  0.09439558    -0.78600
C568        C  0.72036621  0.13179169  0.99954987     0.83900
C569        C  0.86696340  0.27758935  0.00751876     0.83600
O570        O  0.76346888  0.22748269  0.09244262    -0.77600
C571        C  0.77825678  0.36891287  0.00015668     0.84400
O572        O  0.74791026  0.15896815  0.02309887    -0.77700
C573        C  0.74991299  0.24911055  0.40109872     0.84500
C574        C  0.63197741  0.22355294  0.50698165     0.84800
O575        O  0.63991434  0.20046114  0.48378848    -0.80100
O576        O  0.83696370  0.24922616  0.27832623    -0.77600
C577        C  0.74980368  0.24971852  0.36055687     0.83400
O578        O  0.69738882  0.14178592  0.22857371    -0.78700
O579        O  0.66146118  0.25140085  0.27905521    -0.80200
O580        O  0.79938665  0.35694461  0.22841818    -0.80000
O581        O  0.85957897  0.30120850  0.23505377    -0.78600
Zn582      Zn  0.77280714  0.22230578  0.28750018     1.55700
O583        O  0.75277415  0.34397770  0.27534340    -0.80000
Cd584      Cd  0.79842443  0.29652870  0.22374904     1.59700
Cd585      Cd  0.70051700  0.20304323  0.22317110     1.59600
O586        O  0.78393779  0.27872853  0.16832349    -0.80000
O587        O  0.74998117  0.24963603  0.25524354    -1.90500
Cd588      Cd  0.72729735  0.27874377  0.28861115     1.59900
O589        O  0.71576165  0.21966348  0.16775135    -0.80000
O590        O  0.73621273  0.27287292  0.34438305    -0.78600
C591        C  0.72044780  0.13179766  0.24955364     0.83900
C592        C  0.86701617  0.27758031  0.25752454     0.83600
O593        O  0.76349556  0.22748507  0.34245532    -0.77600
C594        C  0.77834964  0.36892589  0.25016019     0.84400
O595        O  0.74798306  0.15897438  0.27310805    -0.77700
C596        C  0.74993077  0.24911258  0.15109824     0.84500
C597        C  0.63203185  0.22354711  0.25697196     0.84800
O598        O  0.63996054  0.20042990  0.23380057    -0.80100
O599        O  0.96239862  0.22745948  0.09238849    -0.77600
C600        C  0.90899070  0.27758921  0.00750200     0.83400
O601        O  0.94285166  0.14181776  0.47849594    -0.78700
O602        O  0.99319395  0.27871464  0.41825422    -0.80200
O603        O  0.58959991  0.34401715  0.02528723    -0.80000
O604        O  0.53506715  0.27291795  0.09430354    -0.78600
Zn605      Zn  0.94792108  0.22231616  0.03743457     1.55700
O606        O  0.55598446  0.35695889  0.47834022    -0.80000
Cd607      Cd  0.54985895  0.27878396  0.03853608     1.59700
Cd608      Cd  0.00098390  0.20308380  0.47309317     1.59600
O609        O  0.58835591  0.25144689  0.02900947    -0.80000
O610        O  0.99808138  0.24965815  0.00516682    -1.90500
Cd611      Cd  0.99652402  0.29653384  0.47367604     1.59900
O612        O  0.55891050  0.20046088  0.48376526    -0.80000
O613        O  0.94005178  0.30121058  0.48501341    -0.78600
C614        C  0.90979270  0.13182271  0.99947644     0.83900
C615        C  0.99832336  0.24972238  0.11048367     0.83600
O616        O  0.91068818  0.24923614  0.02829480    -0.77600
C617        C  0.58898512  0.36895736  0.00010092     0.84400
O618        O  0.90942108  0.15899619  0.02302654    -0.77700
C619        C  0.58993562  0.22357368  0.50695286     0.84500
C620        C  0.49761409  0.24912025  0.40102459     0.84800
O621        O  0.00237616  0.21970239  0.41767221    -0.80100
O622        O  0.96243334  0.22745532  0.34238062    -0.77600
C623        C  0.90904111  0.27757555  0.25750708     0.83400
O624        O  0.94291746  0.14180463  0.22849038    -0.78700
O625        O  0.99320671  0.27870614  0.16826657    -0.80200
O626        O  0.58967231  0.34398088  0.27526973    -0.80000
O627        O  0.53510064  0.27291784  0.34431078    -0.78600
Zn628      Zn  0.94796908  0.22229412  0.28742784     1.55700
O629        O  0.55605014  0.35694509  0.22834146    -0.80000
Cd630      Cd  0.54990613  0.27875809  0.28854150     1.59700
Cd631      Cd  0.00103748  0.20307967  0.22307786     1.59600
O632        O  0.58838966  0.25140371  0.27902647    -0.80000
O633        O  0.99813288  0.24964347  0.25516572    -1.90500
Cd634      Cd  0.99657727  0.29652953  0.22368859     1.59900
O635        O  0.55897647  0.20047329  0.23373673    -0.80000
O636        O  0.94011603  0.30122024  0.23503794    -0.78600
C637        C  0.90986374  0.13180004  0.24948012     0.83900
C638        C  0.99834975  0.24972642  0.36048364     0.83600
O639        O  0.91072681  0.24920157  0.27828038    -0.77600
C640        C  0.58905957  0.36892807  0.25008876     0.84400
O641        O  0.90948875  0.15896955  0.27303231    -0.77700
C642        C  0.58998543  0.22355867  0.25694592     0.84500
C643        C  0.49761078  0.24910964  0.15102437     0.84800
O644        O  0.00238942  0.21969421  0.16765896    -0.80100
O645        O  0.84026184  0.09109978  0.47179731    -0.77600
C646        C  0.74975008  0.00106399  0.38650448     0.83400
O647        O  0.69790908  0.05773476  0.01545484    -0.78700
O648        O  0.65662286  0.40872906  0.46987686    -0.80200
O649        O  0.79933692  0.44300123  0.01581787    -0.80000
O650        O  0.85822327  0.05774525  0.01535960    -0.78600
Zn651      Zn  0.77560180  0.05286968  0.45968256     1.55700
O652        O  0.75031773  0.40863795  0.46997547    -0.80000
Cd653      Cd  0.79708528  0.00107582  0.02328599     1.59700
Cd654      Cd  0.70238287  0.00106929  0.02333921     1.59600
O655        O  0.78211085  0.00188861  0.07891206    -0.80000
O656        O  0.74987911  0.00139124  0.49112899    -1.90500
Cd657      Cd  0.72315410  0.44796117  0.45826394     1.59900
O658        O  0.71821220  0.00187366  0.07894960    -0.80000
O659        O  0.73111114  0.46373967  0.40251092    -0.78600
C660        C  0.72067448  0.09040092  0.49426953     0.84500
C661        C  0.86809237  0.09042570  0.49420643     0.83600
O662        O  0.76791078  0.03746802  0.40469760    -0.77600
C663        C  0.77778560  0.40999786  0.99397484     0.84400
O664        O  0.74914787  0.09107299  0.47181330    -0.77700
C665        C  0.75019226  0.00192751  0.09592164     0.84500
C666        C  0.63054490  0.41005062  0.99393665     0.84800
O667        O  0.64204801  0.44299121  0.01586551    -0.80100
O668        O  0.84034948  0.09106799  0.22178084    -0.77600
C669        C  0.74978064  0.00106806  0.13650454     0.83400
O670        O  0.69795650  0.05772240  0.26542471    -0.78700
O671        O  0.65672682  0.40868433  0.21989894    -0.80200
O672        O  0.79938151  0.44299234  0.26585989    -0.80000
O673        O  0.85827646  0.05773954  0.26539357    -0.78600
Zn674      Zn  0.77568260  0.05286589  0.20968593     1.55700
O675        O  0.75046231  0.40867226  0.21994260    -0.80000
Cd676      Cd  0.79713428  0.00107201  0.27331475     1.59700
Cd677      Cd  0.70242671  0.00105564  0.27331007     1.59600
O678        O  0.78212781  0.00189187  0.32893346    -0.80000
O679        O  0.74994783  0.00138447  0.24112885    -1.90500
Cd680      Cd  0.72324891  0.44795730  0.20826043     1.59900
O681        O  0.71821716  0.00185303  0.32892801    -0.80000
O682        O  0.73115957  0.46374235  0.15250845    -0.78600
C683        C  0.72076191  0.09040962  0.24427114     0.83900
C684        C  0.86816516  0.09040199  0.24421245     0.83600
O685        O  0.76795271  0.03747035  0.15470010    -0.77600
C686        C  0.77788645  0.41001471  0.24397911     0.84400
O687        O  0.74926190  0.09109386  0.22183965    -0.77700
C688        C  0.75019116  0.50191962  0.34592152     0.84500
C689        C  0.63062218  0.41001922  0.24392379     0.84800
O690        O  0.64209443  0.44298208  0.26581908    -0.80100
O691        O  0.83690422  0.24921568  0.52830349    -0.77600
C692        C  0.74979559  0.24972300  0.61055675     0.83400
O693        O  0.69731025  0.14178508  0.97857107    -0.78700
O694        O  0.66139692  0.25137941  0.52908702    -0.80200
O695        O  0.79930857  0.35694364  0.97842034    -0.80000
O696        O  0.85953194  0.30123686  0.98506587    -0.78600
Zn697      Zn  0.77275162  0.22229988  0.53748703     1.55700
O698        O  0.75268469  0.34396072  0.52534022    -0.80000
Cd699      Cd  0.79836986  0.29653917  0.97375760     1.59700
Cd700      Cd  0.70046181  0.20305350  0.97316311     1.59600
O701        O  0.78390862  0.27873053  0.91833264    -0.80000
O702        O  0.74992335  0.24963725  0.50524367    -1.90500
Cd703      Cd  0.72723899  0.27873399  0.53862509     1.59900
O704        O  0.71573226  0.21966583  0.91774313    -0.80000
O705        O  0.73619730  0.27287944  0.59439552    -0.78600
C706        C  0.72036627  0.13179175  0.49954987     0.83900
C707        C  0.86696334  0.27758931  0.50751886     0.83600
O708        O  0.76346891  0.22748277  0.59244261    -0.77600
C709        C  0.77825677  0.36891294  0.50015673     0.84400
O710        O  0.74791028  0.15896826  0.52309887    -0.77700
C711        C  0.74991287  0.24911050  0.90109870     0.84500
C712        C  0.63197745  0.22355297  0.00698173     0.84800
O713        O  0.63991435  0.20046110  0.98378858    -0.80100
O714        O  0.83696373  0.24922614  0.77832615    -0.77600
C715        C  0.74980359  0.24971856  0.86055680     0.83400
O716        O  0.69738889  0.14178595  0.72857357    -0.78700
O717        O  0.66146119  0.25140087  0.77905526    -0.80200
O718        O  0.79938657  0.35694452  0.72841823    -0.80000
O719        O  0.85957900  0.30120846  0.73505370    -0.78600
Zn720      Zn  0.77280704  0.22230579  0.78750003     1.55700
O721        O  0.75277425  0.34397778  0.77534355    -0.80000
Cd722      Cd  0.79842420  0.29652846  0.72374914     1.59700
Cd723      Cd  0.70051691  0.20304325  0.72317120     1.59600
O724        O  0.78393772  0.27872859  0.66832356    -0.80000
O725        O  0.74998109  0.24963600  0.75524364    -1.90500
Cd726      Cd  0.72729724  0.27874379  0.78861124     1.59900
O727        O  0.71576170  0.21966346  0.66775143    -0.80000
O728        O  0.73621259  0.27287294  0.84438300    -0.78600
C729        C  0.72044780  0.13179767  0.74955355     0.83900
C730        C  0.86701623  0.27758032  0.75752451     0.83600
O731        O  0.76349542  0.22748511  0.84245518    -0.77600
C732        C  0.77834970  0.36892591  0.75016027     0.84400
O733        O  0.74798299  0.15897440  0.77310798    -0.77700
C734        C  0.74993076  0.24911260  0.65109829     0.84500
C735        C  0.63203190  0.22354712  0.75697198     0.84800
O736        O  0.63996056  0.20042991  0.73380062    -0.80100
O737        O  0.96239855  0.22745958  0.59238842    -0.77600
C738        C  0.90899064  0.27758915  0.50750196     0.83400
O739        O  0.94285163  0.14181777  0.97849599    -0.78700
O740        O  0.99319389  0.27871464  0.91825431    -0.80200
O741        O  0.58960001  0.34401720  0.52528725    -0.80000
O742        O  0.53506712  0.27291789  0.59430350    -0.78600
Zn743      Zn  0.94792098  0.22231618  0.53743465     1.55700
O744        O  0.55598448  0.35695891  0.97834020    -0.80000
Cd745      Cd  0.54985908  0.27878398  0.53853617     1.59700
Cd746      Cd  0.00098401  0.20308382  0.97309303     1.59600
O747        O  0.58835585  0.25144668  0.52900961    -0.80000
O748        O  0.99808142  0.24965822  0.50516693    -1.90500
Cd749      Cd  0.99652414  0.29653387  0.97367614     1.59900
O750        O  0.55891055  0.20046085  0.98376531    -0.80000
O751        O  0.94005191  0.30121066  0.98501348    -0.78600
C752        C  0.90979274  0.13182270  0.49947638     0.83900
C753        C  0.99832329  0.24972245  0.61048362     0.83600
O754        O  0.91068813  0.24923606  0.52829476    -0.77600
C755        C  0.58898514  0.36895735  0.50010091     0.84400
O756        O  0.90942115  0.15899615  0.52302657    -0.77700
C757        C  0.58993568  0.22357375  0.00695285     0.84500
C758        C  0.49761406  0.24912031  0.90102462     0.84800
O759        O  0.00237611  0.21970238  0.91767214    -0.80100
O760        O  0.96243339  0.22745533  0.84238070    -0.77600
C761        C  0.90904118  0.27757560  0.75750710     0.83400
O762        O  0.94291756  0.14180464  0.72849031    -0.78700
O763        O  0.99320654  0.27870608  0.66826663    -0.80200
O764        O  0.58967225  0.34398088  0.77526963    -0.80000
O765        O  0.53510065  0.27291780  0.84431079    -0.78600
Zn766      Zn  0.94796921  0.22229413  0.78742792     1.55700
O767        O  0.55605012  0.35694516  0.72834137    -0.80000
Cd768      Cd  0.54990626  0.27875812  0.78854138     1.59700
Cd769      Cd  0.00103762  0.20307971  0.72307793     1.59600
O770        O  0.58838974  0.25140368  0.77902651    -0.80000
O771        O  0.99813297  0.24964349  0.75516578    -1.90500
Cd772      Cd  0.99657715  0.29652956  0.72368869     1.59900
O773        O  0.55897664  0.20047338  0.73373667    -0.80000
O774        O  0.94011605  0.30122036  0.73503800    -0.78600
C775        C  0.90986380  0.13180006  0.74948002     0.83900
C776        C  0.99834981  0.24972653  0.86048369     0.83600
O777        O  0.91072692  0.24920156  0.77828032    -0.77600
C778        C  0.58905955  0.36892811  0.75008867     0.84400
O779        O  0.90948877  0.15896961  0.77303214    -0.77700
C780        C  0.58998553  0.22355871  0.75694593     0.84500
C781        C  0.49761072  0.24910966  0.65102435     0.84800
O782        O  0.00238952  0.21969430  0.66765890    -0.80100
O783        O  0.84026178  0.09109980  0.97179749    -0.77600
C784        C  0.74975008  0.00106400  0.88650453     0.83400
O785        O  0.69790906  0.05773481  0.51545482    -0.78700
O786        O  0.65662281  0.40872907  0.96987691    -0.80200
O787        O  0.79933683  0.44300119  0.51581796    -0.80000
O788        O  0.85822326  0.05774528  0.51535951    -0.78600
Zn789      Zn  0.77560191  0.05286971  0.95968265     1.55700
O790        O  0.75031766  0.40863796  0.96997546    -0.80000
Cd791      Cd  0.79708539  0.00107584  0.52328586     1.59700
Cd792      Cd  0.70238273  0.00106931  0.52333909     1.59600
O793        O  0.78211084  0.00188864  0.57891208    -0.80000
O794        O  0.74987917  0.00139119  0.99112895    -1.90500
Cd795      Cd  0.72315397  0.44796120  0.95826402     1.59900
O796        O  0.71821215  0.00187368  0.57894963    -0.80000
O797        O  0.73111129  0.46373970  0.90251097    -0.78600
C798        C  0.72067442  0.09040085  0.99426951     0.84500
C799        C  0.86809235  0.09042570  0.99420656     0.83600
O800        O  0.76791091  0.03746805  0.90469765    -0.77600
C801        C  0.77778560  0.40999788  0.49397491     0.84400
O802        O  0.74914784  0.09107300  0.97181331    -0.77700
C803        C  0.75019224  0.00192753  0.59592165     0.84500
C804        C  0.63054493  0.41005060  0.49393660     0.84800
O805        O  0.64204806  0.44299113  0.51586552    -0.80100
O806        O  0.84034956  0.09106804  0.72178082    -0.77600
C807        C  0.74978059  0.00106808  0.63650458     0.83400
O808        O  0.69795657  0.05772247  0.76542476    -0.78700
O809        O  0.65672689  0.40868432  0.71989900    -0.80200
O810        O  0.79938161  0.44299244  0.76585983    -0.80000
O811        O  0.85827649  0.05773955  0.76539354    -0.78600
Zn812      Zn  0.77568272  0.05286591  0.70968583     1.55700
O813        O  0.75046242  0.40867229  0.71994254    -0.80000
Cd814      Cd  0.79713439  0.00107204  0.77331482     1.59700
Cd815      Cd  0.70242657  0.00105565  0.77331018     1.59600
O816        O  0.78212784  0.00189189  0.82893349    -0.80000
O817        O  0.74994781  0.00138452  0.74112895    -1.90500
Cd818      Cd  0.72324882  0.44795733  0.70826053     1.59900
O819        O  0.71821718  0.00185306  0.82892805    -0.80000
O820        O  0.73115960  0.46374231  0.65250852    -0.78600
C821        C  0.72076196  0.09040964  0.74427114     0.83900
C822        C  0.86816522  0.09040201  0.74421239     0.83600
O823        O  0.76795265  0.03747037  0.65470010    -0.77600
C824        C  0.77788654  0.41001474  0.74397909     0.84400
O825        O  0.74926200  0.09109387  0.72183969    -0.77700
C826        C  0.75019121  0.50191965  0.84592156     0.84500
C827        C  0.63062224  0.41001925  0.74392380     0.84800
O828        O  0.64209454  0.44298207  0.76581913    -0.80100
O829        O  0.83690421  0.74921562  0.02830339    -0.77600
C830        C  0.74979555  0.74972287  0.11055676     0.83400
O831        O  0.69731028  0.64178520  0.47857115    -0.78700
O832        O  0.66139695  0.75137936  0.02908703    -0.80200
O833        O  0.79930857  0.85694365  0.47842033    -0.80000
O834        O  0.85953192  0.80123680  0.48506595    -0.78600
Zn835      Zn  0.77275167  0.72229998  0.03748695     1.55700
O836        O  0.75268469  0.84396080  0.02534023    -0.80000
Cd837      Cd  0.79836982  0.79653905  0.47375750     1.59700
Cd838      Cd  0.70046188  0.70305365  0.47316305     1.59600
O839        O  0.78390867  0.77873059  0.41833256    -0.80000
O840        O  0.74992338  0.74963738  0.00524371    -1.90500
Cd841      Cd  0.72723908  0.77873413  0.03862523     1.59900
O842        O  0.71573232  0.71966592  0.41774320    -0.80000
O843        O  0.73619725  0.77287932  0.09439559    -0.78600
C844        C  0.72036618  0.63179168  0.99954988     0.83900
C845        C  0.86696335  0.77758930  0.00751876     0.83600
O846        O  0.76346889  0.72748266  0.09244262    -0.77600
C847        C  0.77825679  0.86891297  0.00015671     0.84400
O848        O  0.74791014  0.65896815  0.02309892    -0.77700
C849        C  0.74991291  0.74911054  0.40109872     0.84500
C850        C  0.63197735  0.72355286  0.50698171     0.84800
O851        O  0.63991421  0.70046104  0.48378848    -0.80100
O852        O  0.83696383  0.74922631  0.27832625    -0.77600
C853        C  0.74980355  0.74971857  0.36055687     0.83400
O854        O  0.69738893  0.64178595  0.22857365    -0.78700
O855        O  0.66146124  0.75140085  0.27905527    -0.80200
O856        O  0.79938651  0.85694451  0.22841817    -0.80000
O857        O  0.85957908  0.80120863  0.23505377    -0.78600
Zn858      Zn  0.77280712  0.72230592  0.28750018     1.55700
O859        O  0.75277414  0.84397787  0.27534342    -0.80000
Cd860      Cd  0.79842427  0.79652858  0.22374904     1.59700
Cd861      Cd  0.70051685  0.70304312  0.22317110     1.59600
O862        O  0.78393777  0.77872866  0.16832345    -0.80000
O863        O  0.74998109  0.74963596  0.25524355    -1.90500
Cd864      Cd  0.72729733  0.77874393  0.28861115     1.59900
O865        O  0.71576173  0.71966349  0.16775140    -0.80000
O866        O  0.73621266  0.77287303  0.34438307    -0.78600
C867        C  0.72044783  0.63179766  0.24955363     0.83900
C868        C  0.86701631  0.77758045  0.25752457     0.83600
O869        O  0.76349548  0.72748519  0.34245529    -0.77600
C870        C  0.77834968  0.86892595  0.25016021     0.84400
O871        O  0.74798297  0.65897433  0.27310814    -0.77700
C872        C  0.74993080  0.74911259  0.15109824     0.84500
C873        C  0.63203197  0.72354720  0.25697196     0.84800
O874        O  0.63996060  0.70043002  0.23380052    -0.80100
O875        O  0.96239863  0.72745973  0.09238846    -0.77600
C876        C  0.90899066  0.77758920  0.00750198     0.83400
O877        O  0.94285162  0.64181783  0.47849592    -0.78700
O878        O  0.99319398  0.77871472  0.41825420    -0.80200
O879        O  0.58960006  0.84401715  0.02528716    -0.80000
O880        O  0.53506722  0.77291804  0.09430358    -0.78600
Zn881      Zn  0.94792105  0.72231630  0.03743457     1.55700
O882        O  0.55598448  0.85695877  0.47834016    -0.80000
Cd883      Cd  0.54985915  0.77878410  0.03853608     1.59700
Cd884      Cd  0.00098396  0.70308369  0.47309317     1.59600
O885        O  0.58835594  0.75144681  0.02900953    -0.80000
O886        O  0.99808142  0.74965812  0.00516685    -1.90500
Cd887      Cd  0.99652408  0.79653372  0.47367604     1.59900
O888        O  0.55891059  0.70046095  0.48376524    -0.80000
O889        O  0.94005191  0.80121065  0.48501345    -0.78600
C890        C  0.90979278  0.63182274  0.99947644     0.83900
C891        C  0.99832338  0.74972252  0.11048367     0.83600
O892        O  0.91068817  0.74923611  0.02829471    -0.77600
C893        C  0.58898515  0.86895733  0.00010089     0.84400
O894        O  0.90942115  0.65899618  0.02302660    -0.77700
C895        C  0.58993563  0.72357372  0.50695290     0.84500
C896        C  0.49761408  0.74912030  0.40102459     0.84800
O897        O  0.00237602  0.71970236  0.41767222    -0.80100
O898        O  0.96243339  0.72745538  0.34238062    -0.77600
C899        C  0.90904123  0.77757567  0.25750710     0.83400
O900        O  0.94291755  0.64180468  0.22849044    -0.78700
O901        O  0.99320648  0.77870604  0.16826660    -0.80200
O902        O  0.58967228  0.84398097  0.27526978    -0.80000
O903        O  0.53510065  0.77291765  0.34431077    -0.78600
Zn904      Zn  0.94796917  0.72229403  0.28742784     1.55700
O905        O  0.55605015  0.85694515  0.22834145    -0.80000
Cd906      Cd  0.54990621  0.77875799  0.28854150     1.59700
Cd907      Cd  0.00103757  0.70307958  0.22307786     1.59600
O908        O  0.58838988  0.75140387  0.27902647    -0.80000
O909        O  0.99813294  0.74964341  0.25516568    -1.90500
Cd910      Cd  0.99657722  0.79652966  0.22368860     1.59900
O911        O  0.55897666  0.70047344  0.23373673    -0.80000
O912        O  0.94011601  0.80122026  0.23503786    -0.78600
C913        C  0.90986376  0.63180008  0.24948012     0.83900
C914        C  0.99834982  0.74972645  0.36048364     0.83600
O915        O  0.91072702  0.74920172  0.27828042    -0.77600
C916        C  0.58905958  0.86892816  0.25008878     0.84400
O917        O  0.90948874  0.65896962  0.27303226    -0.77700
C918        C  0.58998561  0.72355883  0.25694590     0.84500
C919        C  0.49761074  0.74910965  0.15102438     0.84800
O920        O  0.00238960  0.71969434  0.16765894    -0.80100
O921        O  0.84026183  0.59109991  0.47179735    -0.77600
C922        C  0.74974994  0.50106384  0.38650448     0.83400
O923        O  0.69790897  0.55773473  0.01545475    -0.78700
O924        O  0.65662285  0.90872923  0.46987685    -0.80200
O925        O  0.79933687  0.94300129  0.01581787    -0.80000
O926        O  0.85822332  0.55774542  0.01535964    -0.78600
Zn927      Zn  0.77560186  0.55286958  0.45968257     1.55700
O928        O  0.75031760  0.90863793  0.46997556    -0.80000
Cd929      Cd  0.79708547  0.50107597  0.02328599     1.59700
Cd930      Cd  0.70238281  0.50106942  0.02333921     1.59600
O931        O  0.78211093  0.50188879  0.07891205    -0.80000
O932        O  0.74987911  0.50139110  0.49112896    -1.90500
Cd933      Cd  0.72315406  0.94796134  0.45826394     1.59900
O934        O  0.71821225  0.50187385  0.07894960    -0.80000
O935        O  0.73111137  0.96373983  0.40251093    -0.78600
C936        C  0.72067443  0.59040089  0.49426948     0.84500
C937        C  0.86809237  0.59042578  0.49420643     0.83600
O938        O  0.76791082  0.53746787  0.40469762    -0.77600
C939        C  0.77778564  0.90999791  0.99397483     0.84400
O940        O  0.74914785  0.59107305  0.47181324    -0.77700
C941        C  0.75019232  0.50192767  0.09592163     0.84500
C942        C  0.63054494  0.91005068  0.99393662     0.84800
O943        O  0.64204806  0.94299126  0.01586551    -0.80100
O944        O  0.84034951  0.59106790  0.22178078    -0.77600
C945        C  0.74978063  0.50106813  0.13650453     0.83400
O946        O  0.69795652  0.55772236  0.26542470    -0.78700
O947        O  0.65672684  0.90868423  0.21989897    -0.80200
O948        O  0.79938167  0.94299243  0.26585989    -0.80000
O949        O  0.85827646  0.55773956  0.26539361    -0.78600
Zn950      Zn  0.77568266  0.55286578  0.20968593     1.55700
O951        O  0.75046246  0.90867236  0.21994260    -0.80000
Cd952      Cd  0.79713444  0.50107214  0.27331475     1.59700
Cd953      Cd  0.70242652  0.50105551  0.27331007     1.59600
O954        O  0.78212770  0.50189173  0.32893347    -0.80000
O955        O  0.74994784  0.50138454  0.24112890    -1.90500
Cd956      Cd  0.72324875  0.94795718  0.20826043     1.59900
O957        O  0.71821717  0.50185315  0.32892799    -0.80000
O958        O  0.73115960  0.96374228  0.15250848    -0.78600
C959        C  0.72076195  0.59040957  0.24427113     0.83900
C960        C  0.86816518  0.59040198  0.24421245     0.83600
O961        O  0.76795267  0.53747038  0.15470013    -0.77600
C962        C  0.77788664  0.91001483  0.24397909     0.84400
O963        O  0.74926195  0.59109379  0.22183966    -0.77700
C964        C  0.75019125  0.00191970  0.34592153     0.84500
C965        C  0.63062227  0.91001928  0.24392378     0.84800
O966        O  0.64209463  0.94298220  0.26581902    -0.80100
O967        O  0.83690424  0.74921565  0.52830347    -0.77600
C968        C  0.74979557  0.74972291  0.61055674     0.83400
O969        O  0.69731030  0.64178508  0.97857101    -0.78700
O970        O  0.66139692  0.75137931  0.52908702    -0.80200
O971        O  0.79930849  0.85694367  0.97842036    -0.80000
O972        O  0.85953181  0.80123675  0.98506589    -0.78600
Zn973      Zn  0.77275166  0.72229975  0.53748703     1.55700
O974        O  0.75268477  0.84396072  0.52534022    -0.80000
Cd975      Cd  0.79836968  0.79653907  0.97375760     1.59700
Cd976      Cd  0.70046199  0.70305365  0.97316311     1.59600
O977        O  0.78390862  0.77873068  0.91833262    -0.80000
O978        O  0.74992343  0.74963733  0.50524372    -1.90500
Cd979      Cd  0.72723897  0.77873413  0.53862509     1.59900
O980        O  0.71573239  0.71966587  0.91774314    -0.80000
O981        O  0.73619735  0.77287940  0.59439550    -0.78600
C982        C  0.72036623  0.63179174  0.49954989     0.83900
C983        C  0.86696341  0.77758932  0.50751884     0.83600
O984        O  0.76346880  0.72748257  0.59244262    -0.77600
C985        C  0.77825683  0.86891292  0.50015672     0.84400
O986        O  0.74791034  0.65896816  0.52309887    -0.77700
C987        C  0.74991298  0.74911054  0.90109869     0.84500
C988        C  0.63197740  0.72355285  0.00698175     0.84800
O989        O  0.63991429  0.70046100  0.98378857    -0.80100
O990        O  0.83696376  0.74922635  0.77832613    -0.77600
C991        C  0.74980372  0.74971861  0.86055680     0.83400
O992        O  0.69738887  0.64178595  0.72857361    -0.78700
O993        O  0.66146119  0.75140089  0.77905533    -0.80200
O994        O  0.79938659  0.85694457  0.72841828    -0.80000
O995        O  0.85957906  0.80120867  0.73505370    -0.78600
Zn996      Zn  0.77280722  0.72230594  0.78750003     1.55700
O997        O  0.75277422  0.84397790  0.77534354    -0.80000
Cd998      Cd  0.79842437  0.79652861  0.72374914     1.59700
Cd999      Cd  0.70051695  0.70304315  0.72317120     1.59600
O1000       O  0.78393780  0.77872861  0.66832353    -0.80000
O1001       O  0.74998110  0.74963600  0.75524361    -1.90500
Cd1002     Cd  0.72729743  0.77874396  0.78861124     1.59900
O1003       O  0.71576168  0.71966359  0.66775147    -0.80000
O1004       O  0.73621281  0.77287306  0.84438301    -0.78600
C1005       C  0.72044777  0.63179765  0.74955357     0.83900
C1006       C  0.86701627  0.77758051  0.75752451     0.83600
O1007       O  0.76349563  0.72748522  0.84245516    -0.77600
C1008       C  0.77834966  0.86892596  0.75016026     0.84400
O1009       O  0.74798305  0.65897438  0.77310798    -0.77700
C1010       C  0.74993079  0.74911264  0.65109829     0.84500
C1011       C  0.63203191  0.72354724  0.75697197     0.84800
O1012       O  0.63996059  0.70043005  0.73380058    -0.80100
O1013       O  0.96239866  0.72745963  0.59238839    -0.77600
C1014       C  0.90899072  0.77758918  0.50750199     0.83400
O1015       O  0.94285167  0.64181779  0.97849598    -0.78700
O1016       O  0.99319391  0.77871458  0.91825433    -0.80200
O1017       O  0.58959992  0.84401720  0.52528729    -0.80000
O1018       O  0.53506718  0.77291809  0.59430351    -0.78600
Zn1019     Zn  0.94792113  0.72231631  0.53743465     1.55700
O1020       O  0.55598440  0.85695882  0.97834026    -0.80000
Cd1021     Cd  0.54985902  0.77878413  0.53853616     1.59700
Cd1022     Cd  0.00098387  0.70308371  0.97309302     1.59600
O1023       O  0.58835583  0.75144678  0.52900960    -0.80000
O1024       O  0.99808138  0.74965812  0.50516690    -1.90500
Cd1025     Cd  0.99652395  0.79653374  0.97367614     1.59900
O1026       O  0.55891059  0.70046091  0.98376524    -0.80000
O1027       O  0.94005186  0.80121075  0.98501351    -0.78600
C1028       C  0.90979271  0.63182275  0.49947640     0.83900
C1029       C  0.99832339  0.74972248  0.61048362     0.83600
O1030       O  0.91068820  0.74923614  0.52829479    -0.77600
C1031       C  0.58898512  0.86895734  0.50010092     0.84400
O1032       O  0.90942111  0.65899615  0.52302662    -0.77700
C1033       C  0.58993566  0.72357368  0.00695286     0.84500
C1034       C  0.49761410  0.74912024  0.90102462     0.84800
O1035       O  0.00237611  0.71970231  0.91767214    -0.80100
O1036       O  0.96243343  0.72745534  0.84238069    -0.77600
C1037       C  0.90904120  0.77757570  0.75750710     0.83400
O1038       O  0.94291745  0.64180469  0.72849025    -0.78700
O1039       O  0.99320663  0.77870608  0.66826662    -0.80200
O1040       O  0.58967231  0.84398095  0.77526966    -0.80000
O1041       O  0.53510065  0.77291776  0.84431079    -0.78600
Zn1042     Zn  0.94796925  0.72229405  0.78742793     1.55700
O1043       O  0.55605018  0.85694513  0.72834135    -0.80000
Cd1044     Cd  0.54990609  0.77875802  0.78854137     1.59700
Cd1045     Cd  0.00103743  0.70307961  0.72307793     1.59600
O1046       O  0.58838971  0.75140382  0.77902652    -0.80000
O1047       O  0.99813285  0.74964342  0.75516574    -1.90500
Cd1048     Cd  0.99657733  0.79652969  0.72368869     1.59900
O1049       O  0.55897659  0.70047353  0.73373667    -0.80000
O1050       O  0.94011609  0.80122034  0.73503796    -0.78600
C1051       C  0.90986374  0.63180012  0.74948000     0.83900
C1052       C  0.99834984  0.74972650  0.86048370     0.83600
O1053       O  0.91072689  0.74920166  0.77828038    -0.77600
C1054       C  0.58905957  0.86892816  0.75008870     0.84400
O1055       O  0.90948882  0.65896967  0.77303219    -0.77700
C1056       C  0.58998553  0.72355887  0.75694591     0.84500
C1057       C  0.49761077  0.74910964  0.65102435     0.84800
O1058       O  0.00238950  0.71969425  0.66765893    -0.80100
O1059       O  0.84026187  0.59109988  0.97179741    -0.77600
C1060       C  0.74975004  0.50106387  0.88650453     0.83400
O1061       O  0.69790912  0.55773477  0.51545480    -0.78700
O1062       O  0.65662291  0.90872916  0.96987693    -0.80200
O1063       O  0.79933696  0.94300128  0.51581787    -0.80000
O1064       O  0.85822327  0.55774531  0.51535945    -0.78600
Zn1065     Zn  0.77560176  0.55286961  0.95968266     1.55700
O1066       O  0.75031772  0.90863792  0.96997541    -0.80000
Cd1067     Cd  0.79708524  0.50107574  0.52328587     1.59700
Cd1068     Cd  0.70238281  0.50106918  0.52333908     1.59600
O1069       O  0.78211102  0.50188878  0.57891210    -0.80000
O1070       O  0.74987908  0.50139117  0.99112901    -1.90500
Cd1071     Cd  0.72315406  0.94796110  0.95826402     1.59900
O1072       O  0.71821234  0.50187382  0.57894960    -0.80000
O1073       O  0.73111121  0.96373983  0.90251098    -0.78600
C1074       C  0.72067444  0.59040088  0.99426952     0.84500
C1075       C  0.86809243  0.59042579  0.99420652     0.83600
O1076       O  0.76791070  0.53746790  0.90469766    -0.77600
C1077       C  0.77778561  0.90999788  0.49397490     0.84400
O1078       O  0.74914795  0.59107306  0.97181338    -0.77700
C1079       C  0.75019239  0.50192765  0.59592166     0.84500
C1080       C  0.63054490  0.91005067  0.49393664     0.84800
O1081       O  0.64204800  0.94299124  0.51586551    -0.80100
O1082       O  0.84034943  0.59106794  0.72178087    -0.77600
C1083       C  0.74978066  0.50106810  0.63650457     0.83400
O1084       O  0.69795647  0.55772237  0.76542474    -0.78700
O1085       O  0.65672680  0.90868430  0.71989900    -0.80200
O1086       O  0.79938156  0.94299244  0.76585981    -0.80000
O1087       O  0.85827655  0.55773952  0.76539351    -0.78600
Zn1088     Zn  0.77568276  0.55286580  0.70968582     1.55700
O1089       O  0.75046238  0.90867232  0.71994253    -0.80000
Cd1090     Cd  0.79713436  0.50107217  0.77331482     1.59700
Cd1091     Cd  0.70242664  0.50105555  0.77331018     1.59600
O1092       O  0.78212771  0.50189175  0.82893345    -0.80000
O1093       O  0.74994791  0.50138460  0.74112894    -1.90500
Cd1094     Cd  0.72324884  0.94795721  0.70826053     1.59900
O1095       O  0.71821720  0.50185318  0.82892810    -0.80000
O1096       O  0.73115953  0.96374231  0.65250854    -0.78600
C1097       C  0.72076185  0.59040955  0.74427113     0.83900
C1098       C  0.86816517  0.59040200  0.74421243     0.83600
O1099       O  0.76795273  0.53747034  0.65470013    -0.77600
C1100       C  0.77788651  0.91001479  0.74397906     0.84400
O1101       O  0.74926190  0.59109377  0.72183968    -0.77700
C1102       C  0.75019128  0.00191973  0.84592155     0.84500
C1103       C  0.63062215  0.91001929  0.74392378     0.84800
O1104       O  0.64209445  0.94298211  0.76581913    -0.80100
loop_ 
_geom_bond_atom_site_label_1 
_geom_bond_atom_site_label_2 
_geom_bond_distance 
_geom_bond_site_symmetry_2 
_ccdc_geom_bond_type 
O1           C17   1.272       .  A
O1           Zn7   1.980       .  S
C2           O18   1.272       .  A
C2           O15   1.270       .  A
C2           C44   1.459       .  S
O3          C154   1.276       .  A
O3          Cd10   2.098       .  S
O4          C160   1.272       .  A
O4          Cd13   2.030       .  S
O5          C157   1.276       .  A
O5           Cd9   2.098       .  S
O6          C155   1.277       .  A
O6           Cd9   2.101       .  S
Zn7          O18   2.025       .  S
Zn7          O20   1.991       .  S
Zn7          O12   1.919       .  S
O8           C19   1.271       .  A
O8          Cd13   2.050       .  S
Cd9          O11   2.069       .  S
Cd9         O150   2.024       .  S
Cd10         O14   2.077       .  S
Cd10         O23   2.108       .  S
Cd10        O150   2.028       .  S
O11          C21   1.274       .  A
O12         Cd13   1.971       .  S
O12        Cd147   2.024   1_554  S
O12        Cd148   2.028   1_554  S
Cd13         O15   2.059       .  S
O14          C21   1.275       .  A
C16          O20   1.271   1_556  A
C16         O141   1.276       .  A
C16         C246   1.461       .  S
C17         O144   1.277   1_554  A
C17          C48   1.469       .  S
C19         O143   1.276   1_554  A
C19         C111   1.462   1_554  S
C21          C25   1.459       .  S
C22          O23   1.278       .  A
C22         O142   1.272       .  A
C22          C67   1.470       .  S
O24          C40   1.272       .  A
O24         Zn30   1.980       .  S
C25          O41   1.272       .  A
C25          O38   1.270       .  A
O26          C39   1.276       .  A
O26         Cd33   2.097       .  S
O27          C45   1.272       .  A
O27         Cd36   2.030       .  S
O28          C42   1.276       .  A
O28         Cd32   2.098       .  S
O29          C40   1.277       .  A
O29         Cd32   2.101       .  S
Zn30         O41   2.025       .  S
Zn30         O43   1.991       .  S
Zn30         O35   1.919       .  S
O31          C42   1.271       .  A
O31         Cd36   2.049       .  S
Cd32         O34   2.069       .  S
Cd32         O35   2.024       .  S
Cd33         O37   2.077       .  S
Cd33         O46   2.108       .  S
Cd33         O35   2.028       .  S
O34          C44   1.274       .  A
O35         Cd36   1.971       .  S
Cd36         O38   2.059       .  S
O37          C44   1.275       .  A
C39          O43   1.271       .  A
C39         C131   1.461       .  S
C40          C71   1.469       .  S
C42         C134   1.462       .  S
C45          O46   1.278       .  A
C45          C90   1.470       .  S
O47          C63   1.272       .  A
O47         Zn53   2.025       .  S
C48          O64   1.272       .  A
C48         O199   1.277   1_554  A
O49         C200   1.276       .  A
O49         Cd56   2.097       .  S
O50         C620   1.274       .  A
O50         Cd59   2.069       .  S
O51          C65   1.271       .  A
O51         Cd55   2.049       .  S
O52         C615   1.270   1_455  A
O52         Cd55   2.059       .  S
Zn53         O64   1.980       .  S
Zn53         O66   1.991       .  S
Zn53         O58   1.919       .  S
O54         C203   1.276       .  A
O54        Cd611   2.098   1_455  S
Cd55         O57   2.030       .  S
Cd55        O610   1.971   1_455  S
Cd56         O69   2.077       .  S
Cd56        O612   2.108       .  S
Cd56        O196   2.028       .  S
O57         C205   1.272       .  A
O58        Cd607   1.971       .  S
O58        Cd194   2.028   1_554  S
O58        Cd197   2.023   1_554  S
Cd59         O61   2.101       .  S
Cd59        O606   2.098       .  S
Cd59        O196   2.023       .  S
O60          C67   1.278       .  A
O60        Cd608   2.108       .  S
O61         C186   1.277       .  A
C62          O66   1.271   1_556  A
C62         O187   1.276       .  A
C62         C247   1.461       .  S
C63         O604   1.270       .  A
C63         C643   1.459       .  S
C65         O192   1.276   1_554  A
C65         C114   1.462   1_554  S
C67         O195   1.272       .  A
C68         O602   1.274       .  A
C68         O621   1.275   1_655  A
C68         C638   1.459       .  S
O69         C620   1.275       .  A
O70          C86   1.272       .  A
O70         Zn76   2.025       .  S
C71          O87   1.272       .  A
C71          O84   1.277       .  A
O72          C85   1.276       .  A
O72         Cd79   2.097       .  S
O73         C643   1.274       .  A
O73         Cd82   2.069       .  S
O74          C88   1.271       .  A
O74         Cd78   2.049       .  S
O75         C638   1.270   1_455  A
O75         Cd78   2.059       .  S
Zn76         O87   1.980       .  S
Zn76         O89   1.991       .  S
Zn76         O81   1.919       .  S
O77          C88   1.276       .  A
O77        Cd634   2.098   1_455  S
Cd78         O80   2.030       .  S
Cd78        O633   1.971   1_455  S
Cd79         O92   2.077       .  S
Cd79        O635   2.108       .  S
Cd79         O81   2.028       .  S
O80          C90   1.272       .  A
O81         Cd82   2.023       .  S
O81        Cd630   1.971       .  S
Cd82         O84   2.101       .  S
Cd82        O629   2.098       .  S
O83          C90   1.278       .  A
O83        Cd631   2.108       .  S
C85          O89   1.271       .  A
C85         C132   1.461       .  S
C86         O627   1.270       .  A
C86         C620   1.459       .  S
C88         C137   1.462       .  S
C91         O625   1.274       .  A
C91         O644   1.275   1_655  A
C91         C615   1.459       .  S
O92         C643   1.275       .  A
O93         C109   1.273       .  A
O93         Zn99   2.012       .  S
C94         O110   1.274       .  A
C94         O383   1.273   1_545  A
C94         C412   1.461       .  S
O95         C246   1.275   1_554  A
O95        Cd102   2.084       .  S
O96         C252   1.274       .  A
O96        Cd105   2.069       .  S
O97         C111   1.275   1_554  A
O97        Cd377   2.083       .  S
O98         C247   1.275   1_554  A
O98        Cd101   2.084       .  S
Zn99        O110   2.027       .  S
Zn99        O112   2.012       .  S
Zn99        O104   1.935       .  S
O100        C249   1.274       .  A
O100       Cd105   2.070       .  S
Cd101       O103   2.072       .  S
Cd101       O373   2.083   1_545  S
Cd101       O242   2.021   1_554  S
Cd102       O106   2.073       .  S
Cd102       O391   2.083   1_545  S
Cd102       O242   2.020   1_554  S
O103        C113   1.273       .  A
O104       Cd239   2.021       .  S
O104       Cd240   2.020       .  S
O104       Cd381   1.990   1_545  S
Cd105       O107   2.068       .  S
Cd105       O380   1.990       .  S
O106        C113   1.273       .  A
O107        C370   1.273       .  A
C108        O112   1.273       .  A
C108        O233   1.275       .  A
C108        C154   1.461       .  S
C109        O236   1.274       .  A
C109        C200   1.461       .  S
C111        O238   1.274       .  A
C113        C117   1.461       .  S
C114        O115   1.275   1_556  A
C114        O234   1.274       .  A
O115       Cd378   2.083       .  S
O116        C132   1.273       .  A
O116       Zn122   2.012       .  S
C117        O133   1.274       .  A
C117        O406   1.273   1_545  A
O118        C131   1.274       .  A
O118       Cd125   2.084       .  S
O119        C137   1.274       .  A
O119       Cd128   2.069       .  S
O120        C134   1.275       .  A
O120       Cd400   2.083       .  S
O121        C132   1.275       .  A
O121       Cd124   2.084       .  S
Zn122       O133   2.027       .  S
Zn122       O135   2.012       .  S
Zn122       O127   1.935       .  S
O123        C134   1.274       .  A
O123       Cd128   2.070       .  S
Cd124       O126   2.073       .  S
Cd124       O396   2.083   1_545  S
Cd124       O127   2.021       .  S
Cd125       O129   2.072       .  S
Cd125       O414   2.083   1_545  S
Cd125       O127   2.021       .  S
O126        C412   1.273       .  A
O127       Cd404   1.990   1_545  S
Cd128       O130   2.068       .  S
Cd128       O403   1.990       .  S
O129        C412   1.273       .  A
O130        C393   1.273       .  A
C131        O135   1.273       .  A
C136        O402   1.273       .  A
C136        O405   1.273       .  A
C136        C370   1.461       .  S
C137        O138   1.275       .  A
O138       Cd401   2.083       .  S
O139        C155   1.272       .  A
O139       Zn145   1.980       .  S
C140        O156   1.272       .  A
C140        O153   1.270       .  A
C140        C182   1.459       .  S
O141       Cd148   2.098       .  S
O142       Cd151   2.030       .  S
O143       Cd147   2.098       .  S
O144       Cd147   2.101       .  S
Zn145       O156   2.025       .  S
Zn145       O158   1.991       .  S
Zn145       O150   1.919       .  S
O146        C157   1.271       .  A
O146       Cd151   2.050       .  S
Cd147       O149   2.069       .  S
Cd148       O152   2.077       .  S
Cd148       O161   2.108       .  S
O149        C159   1.274       .  A
O150       Cd151   1.971       .  S
Cd151       O153   2.059       .  S
O152        C159   1.275       .  A
C154        O158   1.271       .  A
C155        C186   1.469       .  S
C157        C249   1.462       .  S
C159        C163   1.459       .  S
C160        O161   1.278   1_554  A
C160        C205   1.470       .  S
O162        C178   1.272       .  A
O162       Zn168   1.980       .  S
C163        O179   1.272       .  A
C163        O176   1.270       .  A
O164        C177   1.276       .  A
O164       Cd171   2.097       .  S
O165        C183   1.272       .  A
O165       Cd174   2.030       .  S
O166        C180   1.276       .  A
O166       Cd170   2.098       .  S
O167        C178   1.277       .  A
O167       Cd170   2.101       .  S
Zn168       O179   2.025       .  S
Zn168       O181   1.991       .  S
Zn168       O173   1.919       .  S
O169        C180   1.271       .  A
O169       Cd174   2.049       .  S
Cd170       O172   2.069       .  S
Cd170       O173   2.024       .  S
Cd171       O175   2.077       .  S
Cd171       O184   2.108       .  S
Cd171       O173   2.028       .  S
O172        C182   1.274       .  A
O173       Cd174   1.971       .  S
Cd174       O176   2.059       .  S
O175        C182   1.275       .  A
C177        O181   1.271       .  A
C177        C269   1.461       .  S
C178        C209   1.469       .  S
C180        C272   1.462       .  S
C183        O184   1.278       .  A
C183        C228   1.470       .  S
O185        C201   1.272       .  A
O185       Zn191   2.025       .  S
C186        O202   1.272       .  A
O187       Cd194   2.097       .  S
O188        C758   1.274       .  A
O188       Cd197   2.069       .  S
O189        C203   1.271       .  A
O189       Cd193   2.049       .  S
O190        C753   1.270   1_455  A
O190       Cd193   2.059       .  S
Zn191       O202   1.980       .  S
Zn191       O204   1.991       .  S
Zn191       O196   1.919       .  S
O192       Cd749   2.098   1_455  S
Cd193       O195   2.030       .  S
Cd193       O748   1.971   1_455  S
Cd194       O750   2.108       .  S
Cd194       O207   2.077       .  S
O196       Cd745   1.971       .  S
Cd197       O744   2.098       .  S
Cd197       O199   2.101       .  S
O198        C205   1.278   1_556  A
O198       Cd746   2.108       .  S
C200        O204   1.271       .  A
C201        O742   1.270       .  A
C201        C781   1.459       .  S
C203        C252   1.462       .  S
C206        O740   1.274       .  A
C206        O759   1.275   1_655  A
C206        C776   1.459       .  S
O207        C758   1.275       .  A
O208        C224   1.272       .  A
O208       Zn214   2.025       .  S
C209        O225   1.272       .  A
C209        O222   1.277       .  A
O210        C223   1.276       .  A
O210       Cd217   2.097       .  S
O211        C781   1.274       .  A
O211       Cd220   2.069       .  S
O212        C226   1.271       .  A
O212       Cd216   2.049       .  S
O213        C776   1.270   1_455  A
O213       Cd216   2.059       .  S
Zn214       O225   1.980       .  S
Zn214       O227   1.991       .  S
Zn214       O219   1.919       .  S
O215        C226   1.276       .  A
O215       Cd772   2.098   1_455  S
Cd216       O218   2.030       .  S
Cd216       O771   1.971   1_455  S
Cd217       O773   2.108       .  S
Cd217       O230   2.077       .  S
Cd217       O219   2.028       .  S
O218        C228   1.272       .  A
O219       Cd768   1.971       .  S
O219       Cd220   2.023       .  S
Cd220       O767   2.098       .  S
Cd220       O222   2.101       .  S
O221        C228   1.278       .  A
O221       Cd769   2.108       .  S
C223        O227   1.271       .  A
C223        C270   1.461       .  S
C224        O765   1.270       .  A
C224        C758   1.459       .  S
C226        C275   1.462       .  S
C229        O763   1.274       .  A
C229        O782   1.275   1_655  A
C229        C753   1.459       .  S
O230        C781   1.275       .  A
O231        C247   1.273       .  A
O231       Zn237   2.012       .  S
C232        O248   1.274       .  A
C232        O521   1.273   1_545  A
C232        C550   1.461       .  S
O233       Cd240   2.084       .  S
O234       Cd243   2.069       .  S
O235        C249   1.275       .  A
O235       Cd515   2.083       .  S
O236       Cd239   2.084       .  S
Zn237       O248   2.027       .  S
Zn237       O250   2.012       .  S
Zn237       O242   1.935       .  S
O238       Cd243   2.070       .  S
Cd239       O511   2.083   1_545  S
Cd239       O241   2.072       .  S
Cd240       O244   2.073       .  S
Cd240       O529   2.083   1_545  S
O241        C251   1.273       .  A
O242       Cd519   1.990   1_545  S
Cd243       O245   2.068       .  S
Cd243       O518   1.990       .  S
O244        C251   1.273       .  A
O245        C508   1.273       .  A
C246        O250   1.273       .  A
C251        C255   1.461       .  S
C252        O253   1.275       .  A
O253       Cd516   2.083       .  S
O254        C270   1.273       .  A
O254       Zn260   2.012       .  S
C255        O271   1.274       .  A
C255        O544   1.273   1_545  A
O256        C269   1.274       .  A
O256       Cd263   2.084       .  S
O257        C275   1.274       .  A
O257       Cd266   2.069       .  S
O258        C272   1.275       .  A
O258       Cd538   2.083       .  S
O259        C270   1.275       .  A
O259       Cd262   2.084       .  S
Zn260       O271   2.027       .  S
Zn260       O273   2.012       .  S
Zn260       O265   1.935       .  S
O261        C272   1.274       .  A
O261       Cd266   2.070       .  S
Cd262       O534   2.083   1_545  S
Cd262       O264   2.073       .  S
Cd262       O265   2.021       .  S
Cd263       O267   2.072       .  S
Cd263       O552   2.083   1_545  S
Cd263       O265   2.021       .  S
O264        C550   1.273       .  A
O265       Cd542   1.990   1_545  S
Cd266       O268   2.068       .  S
Cd266       O541   1.990       .  S
O267        C550   1.273       .  A
O268        C531   1.273       .  A
C269        O273   1.273       .  A
C274        O540   1.273       .  A
C274        O543   1.273       .  A
C274        C508   1.461       .  S
C275        O276   1.275       .  A
O276       Cd539   2.083       .  S
O277        C293   1.272       .  A
O277       Zn283   1.980       .  S
C278        O294   1.272       .  A
C278        O291   1.270       .  A
C278        C320   1.459       .  S
O279        C430   1.276       .  A
O279       Cd286   2.098       .  S
O280        C436   1.272       .  A
O280       Cd289   2.030       .  S
O281        C433   1.276       .  A
O281       Cd285   2.098       .  S
O282        C431   1.277       .  A
O282       Cd285   2.101       .  S
Zn283       O294   2.025       .  S
Zn283       O296   1.991       .  S
Zn283       O288   1.919       .  S
O284        C295   1.271       .  A
O284       Cd289   2.050       .  S
Cd285       O287   2.069       .  S
Cd285       O426   2.024       .  S
Cd286       O290   2.077       .  S
Cd286       O299   2.108       .  S
Cd286       O426   2.028       .  S
O287        C297   1.274       .  A
O288       Cd423   2.024   1_554  S
O288       Cd424   2.028   1_554  S
O288       Cd289   1.971       .  S
Cd289       O291   2.059       .  S
O290        C297   1.275       .  A
C292        O417   1.276       .  A
C292        O296   1.271   1_556  A
C292        C522   1.461       .  S
C293        O420   1.277   1_554  A
C293        C324   1.469       .  S
C295        O419   1.276   1_554  A
C295        C387   1.462   1_554  S
C297        C301   1.459       .  S
C298        O418   1.272       .  A
C298        O299   1.278       .  A
C298        C343   1.470       .  S
O300        C316   1.272       .  A
O300       Zn306   1.980       .  S
C301        O317   1.272       .  A
C301        O314   1.270       .  A
O302        C315   1.276       .  A
O302       Cd309   2.097       .  S
O303        C321   1.272       .  A
O303       Cd312   2.030       .  S
O304        C318   1.276       .  A
O304       Cd308   2.098       .  S
O305        C316   1.277       .  A
O305       Cd308   2.101       .  S
Zn306       O317   2.025       .  S
Zn306       O319   1.991       .  S
Zn306       O311   1.919       .  S
O307        C318   1.271       .  A
O307       Cd312   2.049       .  S
Cd308       O310   2.069       .  S
Cd308       O311   2.024       .  S
Cd309       O313   2.077       .  S
Cd309       O322   2.108       .  S
Cd309       O311   2.028       .  S
O310        C320   1.274       .  A
O311       Cd312   1.971       .  S
Cd312       O314   2.059       .  S
O313        C320   1.275       .  A
C315        O319   1.271       .  A
C315        C407   1.461       .  S
C316        C347   1.469       .  S
C318        C410   1.462       .  S
C321        O322   1.278       .  A
C321        C366   1.470       .  S
O323        C339   1.272       .  A
O323       Zn329   2.025       .  S
C324        O340   1.272       .  A
C324        O475   1.277   1_554  A
O325        C476   1.276       .  A
O325       Cd332   2.097       .  S
O326        C896   1.274       .  A
O326       Cd335   2.069       .  S
O327        C341   1.271       .  A
O327       Cd331   2.049       .  S
O328        C891   1.270   1_455  A
O328       Cd331   2.059       .  S
Zn329       O340   1.980       .  S
Zn329       O342   1.991       .  S
Zn329       O334   1.919       .  S
O330        C479   1.276       .  A
O330       Cd887   2.098   1_455  S
Cd331       O333   2.030       .  S
Cd331       O886   1.971   1_455  S
Cd332       O888   2.108       .  S
Cd332       O345   2.077       .  S
Cd332       O472   2.028       .  S
O333        C481   1.272       .  A
O334       Cd883   1.971       .  S
O334       Cd470   2.028   1_554  S
O334       Cd473   2.023   1_554  S
Cd335       O882   2.098       .  S
Cd335       O337   2.101       .  S
Cd335       O472   2.023       .  S
O336        C343   1.278       .  A
O336       Cd884   2.108       .  S
O337        C462   1.277       .  A
C338        O463   1.276       .  A
C338        O342   1.271   1_556  A
C338        C523   1.461       .  S
C339        O880   1.270       .  A
C339        C919   1.459       .  S
C341        O468   1.276   1_554  A
C341        C390   1.462   1_554  S
C343        O471   1.272       .  A
C344        O878   1.274       .  A
C344        O897   1.275   1_655  A
C344        C914   1.459       .  S
O345        C896   1.275       .  A
O346        C362   1.272       .  A
O346       Zn352   2.025       .  S
C347        O363   1.272       .  A
C347        O360   1.277       .  A
O348        C361   1.276       .  A
O348       Cd355   2.097       .  S
O349        C919   1.274       .  A
O349       Cd358   2.069       .  S
O350        C364   1.271       .  A
O350       Cd354   2.049       .  S
O351        C914   1.270   1_455  A
O351       Cd354   2.059       .  S
Zn352       O363   1.980       .  S
Zn352       O365   1.991       .  S
Zn352       O357   1.919       .  S
O353        C364   1.276       .  A
O353       Cd910   2.098   1_455  S
Cd354       O356   2.030       .  S
Cd354       O909   1.971   1_455  S
Cd355       O911   2.108       .  S
Cd355       O368   2.077       .  S
Cd355       O357   2.028       .  S
O356        C366   1.272       .  A
O357       Cd906   1.971       .  S
O357       Cd358   2.023       .  S
Cd358       O905   2.098       .  S
Cd358       O360   2.101       .  S
O359        C366   1.278       .  A
O359       Cd907   2.108       .  S
C361        O365   1.271       .  A
C361        C408   1.461       .  S
C362        O903   1.270       .  A
C362        C896   1.459       .  S
C364        C413   1.462       .  S
C367        O901   1.274       .  A
C367        O920   1.275   1_655  A
C367        C891   1.459       .  S
O368        C919   1.275       .  A
O369        C385   1.273       .  A
O369       Zn375   2.012       .  S
C370        O386   1.274       .  A
O371        C522   1.275   1_554  A
O371       Cd378   2.084       .  S
O372        C528   1.274       .  A
O372       Cd381   2.069       .  S
O373        C387   1.275   1_554  A
O374        C523   1.274   1_554  A
O374       Cd377   2.084       .  S
Zn375       O386   2.027       .  S
Zn375       O388   2.012       .  S
Zn375       O380   1.935       .  S
O376        C525   1.274       .  A
O376       Cd381   2.070       .  S
Cd377       O379   2.072       .  S
Cd377       O518   2.021   1_554  S
Cd378       O382   2.073       .  S
Cd378       O518   2.020   1_554  S
O379        C389   1.273       .  A
O380       Cd515   2.021       .  S
O380       Cd516   2.020       .  S
Cd381       O383   2.068       .  S
O382        C389   1.273       .  A
C384        O509   1.275       .  A
C384        O388   1.273       .  A
C384        C430   1.461       .  S
C385        O512   1.275       .  A
C385        C476   1.461       .  S
C387        O514   1.274       .  A
C389        C393   1.461       .  S
C390        O510   1.274       .  A
C390        O391   1.275   1_556  A
O392        C408   1.273       .  A
O392       Zn398   2.012       .  S
C393        O409   1.274       .  A
O394        C407   1.274       .  A
O394       Cd401   2.084       .  S
O395        C413   1.274       .  A
O395       Cd404   2.069       .  S
O396        C410   1.275       .  A
O397        C408   1.275       .  A
O397       Cd400   2.084       .  S
Zn398       O409   2.027       .  S
Zn398       O411   2.012       .  S
Zn398       O403   1.935       .  S
O399        C410   1.274       .  A
O399       Cd404   2.070       .  S
Cd400       O402   2.073       .  S
Cd400       O403   2.021       .  S
Cd401       O405   2.072       .  S
Cd401       O403   2.021       .  S
Cd404       O406   2.068       .  S
C407        O411   1.273       .  A
C413        O414   1.275       .  A
O415        C431   1.272       .  A
O415       Zn421   1.980       .  S
C416        O432   1.272       .  A
C416        O429   1.270       .  A
C416        C458   1.459       .  S
O417       Cd424   2.098       .  S
O418       Cd427   2.030       .  S
O419       Cd423   2.098       .  S
O420       Cd423   2.101       .  S
Zn421       O432   2.025       .  S
Zn421       O434   1.991       .  S
Zn421       O426   1.919       .  S
O422        C433   1.271       .  A
O422       Cd427   2.050       .  S
Cd423       O425   2.069       .  S
Cd424       O428   2.077       .  S
Cd424       O437   2.108       .  S
O425        C435   1.274       .  A
O426       Cd427   1.971       .  S
Cd427       O429   2.059       .  S
O428        C435   1.275       .  A
C430        O434   1.271       .  A
C431        C462   1.469       .  S
C433        C525   1.462       .  S
C435        C439   1.459       .  S
C436        O437   1.278   1_554  A
C436        C481   1.470       .  S
O438        C454   1.272       .  A
O438       Zn444   1.980       .  S
C439        O455   1.272       .  A
C439        O452   1.270       .  A
O440        C453   1.276       .  A
O440       Cd447   2.097       .  S
O441        C459   1.272       .  A
O441       Cd450   2.030       .  S
O442        C456   1.276       .  A
O442       Cd446   2.098       .  S
O443        C454   1.277       .  A
O443       Cd446   2.101       .  S
Zn444       O455   2.025       .  S
Zn444       O457   1.991       .  S
Zn444       O449   1.919       .  S
O445        C456   1.271       .  A
O445       Cd450   2.049       .  S
Cd446       O448   2.069       .  S
Cd446       O449   2.024       .  S
Cd447       O451   2.077       .  S
Cd447       O460   2.108       .  S
Cd447       O449   2.028       .  S
O448        C458   1.274       .  A
O449       Cd450   1.971       .  S
Cd450       O452   2.059       .  S
O451        C458   1.275       .  A
C453        O457   1.271       .  A
C453        C545   1.461       .  S
C454        C485   1.469       .  S
C456        C548   1.462       .  S
C459        O460   1.278       .  A
C459        C504   1.470       .  S
O461        C477   1.272       .  A
O461       Zn467   2.025       .  S
C462        O478   1.272       .  A
O463       Cd470   2.097       .  S
O464       C1034   1.274       .  A
O464       Cd473   2.069       .  S
O465        C479   1.271       .  A
O465       Cd469   2.049       .  S
O466       C1029   1.270   1_455  A
O466       Cd469   2.059       .  S
Zn467       O478   1.980       .  S
Zn467       O480   1.991       .  S
Zn467       O472   1.919       .  S
O468      Cd1025   2.098   1_455  S
Cd469       O471   2.030       .  S
Cd469      O1024   1.971   1_455  S
Cd470      O1026   2.108       .  S
Cd470       O483   2.077       .  S
O472      Cd1021   1.971       .  S
Cd473      O1020   2.098       .  S
Cd473       O475   2.101       .  S
O474        C481   1.278   1_556  A
O474      Cd1022   2.108       .  S
C476        O480   1.271       .  A
C477       O1018   1.270       .  A
C477       C1057   1.459       .  S
C479        C528   1.462       .  S
C482       O1016   1.274       .  A
C482       O1035   1.275   1_655  A
C482       C1052   1.459       .  S
O483       C1034   1.275       .  A
O484        C500   1.272       .  A
O484       Zn490   2.025       .  S
C485        O501   1.272       .  A
C485        O498   1.277       .  A
O486        C499   1.276       .  A
O486       Cd493   2.097       .  S
O487       C1057   1.274       .  A
O487       Cd496   2.069       .  S
O488        C502   1.271       .  A
O488       Cd492   2.049       .  S
O489       C1052   1.270   1_455  A
O489       Cd492   2.059       .  S
Zn490       O501   1.980       .  S
Zn490       O503   1.991       .  S
Zn490       O495   1.919       .  S
O491        C502   1.276       .  A
O491      Cd1048   2.098   1_455  S
Cd492       O494   2.030       .  S
Cd492      O1047   1.971   1_455  S
Cd493      O1049   2.108       .  S
Cd493       O506   2.077       .  S
Cd493       O495   2.028       .  S
O494        C504   1.272       .  A
O495      Cd1044   1.971       .  S
O495       Cd496   2.023       .  S
Cd496      O1043   2.098       .  S
Cd496       O498   2.101       .  S
O497        C504   1.278       .  A
O497      Cd1045   2.108       .  S
C499        O503   1.271       .  A
C499        C546   1.461       .  S
C500       O1041   1.270       .  A
C500       C1034   1.459       .  S
C502        C551   1.462       .  S
C505       O1039   1.274       .  A
C505       O1058   1.275   1_655  A
C505       C1029   1.459       .  S
O506       C1057   1.275       .  A
O507        C523   1.273       .  A
O507       Zn513   2.012       .  S
C508        O524   1.274       .  A
O509       Cd516   2.084       .  S
O510       Cd519   2.069       .  S
O511        C525   1.275       .  A
O512       Cd515   2.084       .  S
Zn513       O524   2.027       .  S
Zn513       O526   2.012       .  S
Zn513       O518   1.935       .  S
O514       Cd519   2.070       .  S
Cd515       O517   2.072       .  S
Cd516       O520   2.073       .  S
O517        C527   1.273       .  A
Cd519       O521   2.068       .  S
O520        C527   1.273       .  A
C522        O526   1.273       .  A
C527        C531   1.461       .  S
C528        O529   1.275       .  A
O530        C546   1.273       .  A
O530       Zn536   2.012       .  S
C531        O547   1.274       .  A
O532        C545   1.274       .  A
O532       Cd539   2.084       .  S
O533        C551   1.274       .  A
O533       Cd542   2.069       .  S
O534        C548   1.275       .  A
O535        C546   1.275       .  A
O535       Cd538   2.084       .  S
Zn536       O547   2.027       .  S
Zn536       O549   2.012       .  S
Zn536       O541   1.935       .  S
O537        C548   1.274       .  A
O537       Cd542   2.070       .  S
Cd538       O540   2.073       .  S
Cd538       O541   2.021       .  S
Cd539       O543   2.072       .  S
Cd539       O541   2.021       .  S
Cd542       O544   2.068       .  S
C545        O549   1.273       .  A
C551        O552   1.275       .  A
O553        C569   1.272       .  A
O553       Zn559   1.980       .  S
C554        O570   1.272       .  A
C554        O567   1.270       .  A
C554        C596   1.459       .  S
O555        C706   1.276       .  A
O555       Cd562   2.098       .  S
O556        C712   1.272       .  A
O556       Cd565   2.030       .  S
O557        C709   1.276       .  A
O557       Cd561   2.098       .  S
O558        C707   1.277       .  A
O558       Cd561   2.101       .  S
Zn559       O570   2.025       .  S
Zn559       O572   1.991       .  S
Zn559       O564   1.919       .  S
O560        C571   1.271       .  A
O560       Cd565   2.050       .  S
Cd561       O563   2.069       .  S
Cd561       O702   2.024       .  S
Cd562       O566   2.077       .  S
Cd562       O575   2.108       .  S
Cd562       O702   2.028       .  S
O563        C573   1.274       .  A
O564       Cd699   2.024   1_554  S
O564       Cd700   2.028   1_554  S
O564       Cd565   1.971       .  S
Cd565       O567   2.059       .  S
O566        C573   1.275       .  A
C568        O693   1.276       .  A
C568        O572   1.271   1_556  A
C568        C798   1.461       .  S
C569        O696   1.277   1_554  A
C569        C600   1.469       .  S
C571        O695   1.276   1_554  A
C571        C663   1.462   1_554  S
C573        C577   1.459       .  S
C574        O694   1.272       .  A
C574        O575   1.278       .  A
C574        C619   1.470       .  S
O576        C592   1.272       .  A
O576       Zn582   1.980       .  S
C577        O593   1.272       .  A
C577        O590   1.270       .  A
O578        C591   1.276       .  A
O578       Cd585   2.097       .  S
O579        C597   1.272       .  A
O579       Cd588   2.030       .  S
O580        C594   1.276       .  A
O580       Cd584   2.098       .  S
O581        C592   1.277       .  A
O581       Cd584   2.101       .  S
Zn582       O593   2.025       .  S
Zn582       O595   1.991       .  S
Zn582       O587   1.919       .  S
O583        C594   1.271       .  A
O583       Cd588   2.049       .  S
Cd584       O586   2.069       .  S
Cd584       O587   2.024       .  S
Cd585       O589   2.077       .  S
Cd585       O598   2.108       .  S
Cd585       O587   2.028       .  S
O586        C596   1.274       .  A
O587       Cd588   1.971       .  S
Cd588       O590   2.059       .  S
O589        C596   1.275       .  A
C591        O595   1.271       .  A
C591        C683   1.461       .  S
C592        C623   1.469       .  S
C594        C686   1.462       .  S
C597        O598   1.278       .  A
C597        C642   1.470       .  S
O599        C615   1.272       .  A
O599       Zn605   2.025       .  S
C600        O616   1.272       .  A
C600        O751   1.277   1_554  A
O601        C752   1.276       .  A
O601       Cd608   2.097   1_655  S
O602       Cd611   2.069       .  S
O603        C617   1.271       .  A
O603       Cd607   2.049       .  S
O604       Cd607   2.059       .  S
Zn605       O616   1.980       .  S
Zn605       O618   1.991       .  S
Zn605       O610   1.919       .  S
O606        C755   1.276       .  A
Cd607       O609   2.030       .  S
Cd608       O621   2.077       .  S
Cd608       O748   2.028   1_455  S
O609        C757   1.272       .  A
O610       Cd746   2.028   1_654  S
O610       Cd749   2.023   1_554  S
Cd611       O613   2.101       .  S
Cd611       O748   2.023       .  S
O612        C619   1.278       .  A
O613        C738   1.277       .  A
C614        O739   1.276       .  A
C614        O618   1.271   1_556  A
C614        C799   1.461       .  S
C617        O744   1.276   1_554  A
C617        C666   1.462   1_554  S
C619        O747   1.272       .  A
O622        C638   1.272       .  A
O622       Zn628   2.025       .  S
C623        O639   1.272       .  A
C623        O636   1.277       .  A
O624        C637   1.276       .  A
O624       Cd631   2.097   1_655  S
O625       Cd634   2.069       .  S
O626        C640   1.271       .  A
O626       Cd630   2.049       .  S
O627       Cd630   2.059       .  S
Zn628       O639   1.980       .  S
Zn628       O641   1.991       .  S
Zn628       O633   1.919       .  S
O629        C640   1.276       .  A
Cd630       O632   2.030       .  S
Cd631       O644   2.077       .  S
Cd631       O633   2.028   1_455  S
O632        C642   1.272       .  A
O633       Cd634   2.023       .  S
Cd634       O636   2.101       .  S
O635        C642   1.278       .  A
C637        O641   1.271       .  A
C637        C684   1.461       .  S
C640        C689   1.462       .  S
O645        C661   1.273       .  A
O645       Zn651   2.012       .  S
C646        O662   1.274       .  A
C646        O935   1.273   1_545  A
C646        C964   1.461       .  S
O647        C798   1.275   1_554  A
O647       Cd654   2.084       .  S
O648        C804   1.274       .  A
O648       Cd657   2.069       .  S
O649        C663   1.275   1_554  A
O649       Cd929   2.083       .  S
O650        C799   1.275   1_554  A
O650       Cd653   2.084       .  S
Zn651       O662   2.027       .  S
Zn651       O664   2.012       .  S
Zn651       O656   1.935       .  S
O652        C801   1.274       .  A
O652       Cd657   2.070       .  S
Cd653       O925   2.083   1_545  S
Cd653       O655   2.072       .  S
Cd653       O794   2.021   1_554  S
Cd654       O658   2.073       .  S
Cd654       O943   2.083   1_545  S
Cd654       O794   2.020   1_554  S
O655        C665   1.273       .  A
O656       Cd791   2.021       .  S
O656       Cd792   2.020       .  S
O656       Cd933   1.990   1_545  S
Cd657       O659   2.068       .  S
Cd657       O932   1.990       .  S
O658        C665   1.273       .  A
O659        C922   1.273       .  A
C660        O785   1.275       .  A
C660        O664   1.273       .  A
C660        C706   1.461       .  S
C661        O788   1.274       .  A
C661        C752   1.461       .  S
C663        O790   1.274       .  A
C665        C669   1.461       .  S
C666        O786   1.274       .  A
C666        O667   1.275   1_556  A
O667       Cd930   2.083       .  S
O668        C684   1.273       .  A
O668       Zn674   2.012       .  S
C669        O685   1.274       .  A
C669        O958   1.273   1_545  A
O670        C683   1.274       .  A
O670       Cd677   2.084       .  S
O671        C689   1.274       .  A
O671       Cd680   2.069       .  S
O672        C686   1.275       .  A
O672       Cd952   2.083       .  S
O673        C684   1.275       .  A
O673       Cd676   2.084       .  S
Zn674       O685   2.027       .  S
Zn674       O687   2.012       .  S
Zn674       O679   1.935       .  S
O675        C686   1.274       .  A
O675       Cd680   2.070       .  S
Cd676       O948   2.083   1_545  S
Cd676       O678   2.073       .  S
Cd676       O679   2.021       .  S
Cd677       O681   2.072       .  S
Cd677       O966   2.083   1_545  S
Cd677       O679   2.021       .  S
O678        C964   1.273       .  A
O679       Cd956   1.990   1_545  S
Cd680       O682   2.068       .  S
Cd680       O955   1.990       .  S
O681        C964   1.273       .  A
O682        C945   1.273       .  A
C683        O687   1.273       .  A
C688        O954   1.273       .  A
C688        O957   1.273       .  A
C688        C922   1.461       .  S
C689        O690   1.275       .  A
O690       Cd953   2.083       .  S
O691        C707   1.272       .  A
O691       Zn697   1.980       .  S
C692        O708   1.272       .  A
C692        O705   1.270       .  A
C692        C734   1.459       .  S
O693       Cd700   2.098       .  S
O694       Cd703   2.030       .  S
O695       Cd699   2.098       .  S
O696       Cd699   2.101       .  S
Zn697       O708   2.025       .  S
Zn697       O710   1.991       .  S
Zn697       O702   1.919       .  S
O698        C709   1.271       .  A
O698       Cd703   2.050       .  S
Cd699       O701   2.069       .  S
Cd700       O704   2.077       .  S
Cd700       O713   2.108       .  S
O701        C711   1.274       .  A
O702       Cd703   1.971       .  S
Cd703       O705   2.059       .  S
O704        C711   1.275       .  A
C706        O710   1.271       .  A
C707        C738   1.469       .  S
C709        C801   1.462       .  S
C711        C715   1.459       .  S
C712        O713   1.278   1_554  A
C712        C757   1.470       .  S
O714        C730   1.272       .  A
O714       Zn720   1.980       .  S
C715        O731   1.272       .  A
C715        O728   1.270       .  A
O716        C729   1.276       .  A
O716       Cd723   2.097       .  S
O717        C735   1.272       .  A
O717       Cd726   2.030       .  S
O718        C732   1.276       .  A
O718       Cd722   2.098       .  S
O719        C730   1.277       .  A
O719       Cd722   2.101       .  S
Zn720       O731   2.025       .  S
Zn720       O733   1.991       .  S
Zn720       O725   1.919       .  S
O721        C732   1.271       .  A
O721       Cd726   2.049       .  S
Cd722       O724   2.069       .  S
Cd722       O725   2.024       .  S
Cd723       O727   2.077       .  S
Cd723       O736   2.108       .  S
Cd723       O725   2.028       .  S
O724        C734   1.274       .  A
O725       Cd726   1.971       .  S
Cd726       O728   2.059       .  S
O727        C734   1.275       .  A
C729        O733   1.271       .  A
C729        C821   1.461       .  S
C730        C761   1.469       .  S
C732        C824   1.462       .  S
C735        O736   1.278       .  A
C735        C780   1.470       .  S
O737        C753   1.272       .  A
O737       Zn743   2.025       .  S
C738        O754   1.272       .  A
O739       Cd746   2.097   1_655  S
O740       Cd749   2.069       .  S
O741        C755   1.271       .  A
O741       Cd745   2.049       .  S
O742       Cd745   2.059       .  S
Zn743       O754   1.980       .  S
Zn743       O756   1.991       .  S
Zn743       O748   1.919       .  S
Cd745       O747   2.030       .  S
Cd746       O759   2.077       .  S
Cd749       O751   2.101       .  S
O750        C757   1.278   1_556  A
C752        O756   1.271       .  A
C755        C804   1.462       .  S
O760        C776   1.272       .  A
O760       Zn766   2.025       .  S
C761        O777   1.272       .  A
C761        O774   1.277       .  A
O762        C775   1.276       .  A
O762       Cd769   2.097   1_655  S
O763       Cd772   2.069       .  S
O764        C778   1.271       .  A
O764       Cd768   2.049       .  S
O765       Cd768   2.059       .  S
Zn766       O777   1.980       .  S
Zn766       O779   1.991       .  S
Zn766       O771   1.919       .  S
O767        C778   1.276       .  A
Cd768       O770   2.030       .  S
Cd769       O782   2.077       .  S
Cd769       O771   2.028   1_455  S
O770        C780   1.272       .  A
O771       Cd772   2.023       .  S
Cd772       O774   2.101       .  S
O773        C780   1.278       .  A
C775        O779   1.271       .  A
C775        C822   1.461       .  S
C778        C827   1.462       .  S
O783        C799   1.273       .  A
O783       Zn789   2.012       .  S
C784        O800   1.274       .  A
C784       O1073   1.273   1_545  A
C784       C1102   1.461       .  S
O785       Cd792   2.084       .  S
O786       Cd795   2.069       .  S
O787        C801   1.275       .  A
O787      Cd1067   2.083       .  S
O788       Cd791   2.084       .  S
Zn789       O800   2.027       .  S
Zn789       O802   2.012       .  S
Zn789       O794   1.935       .  S
O790       Cd795   2.070       .  S
Cd791      O1063   2.083   1_545  S
Cd791       O793   2.072       .  S
Cd792       O796   2.073       .  S
Cd792      O1081   2.083   1_545  S
O793        C803   1.273       .  A
O794      Cd1071   1.990   1_545  S
Cd795       O797   2.068       .  S
Cd795      O1070   1.990       .  S
O796        C803   1.273       .  A
O797       C1060   1.273       .  A
C798        O802   1.273       .  A
C803        C807   1.461       .  S
C804        O805   1.275       .  A
O805      Cd1068   2.083       .  S
O806        C822   1.273       .  A
O806       Zn812   2.012       .  S
C807        O823   1.274       .  A
C807       O1096   1.273   1_545  A
O808        C821   1.274       .  A
O808       Cd815   2.084       .  S
O809        C827   1.274       .  A
O809       Cd818   2.069       .  S
O810        C824   1.275       .  A
O810      Cd1090   2.083       .  S
O811        C822   1.275       .  A
O811       Cd814   2.084       .  S
Zn812       O823   2.027       .  S
Zn812       O825   2.012       .  S
Zn812       O817   1.935       .  S
O813        C824   1.274       .  A
O813       Cd818   2.070       .  S
Cd814      O1086   2.083   1_545  S
Cd814       O816   2.073       .  S
Cd814       O817   2.021       .  S
Cd815       O819   2.072       .  S
Cd815      O1104   2.083   1_545  S
Cd815       O817   2.021       .  S
O816       C1102   1.273       .  A
O817      Cd1094   1.990   1_545  S
Cd818       O820   2.068       .  S
Cd818      O1093   1.990       .  S
O819       C1102   1.273       .  A
O820       C1083   1.273       .  A
C821        O825   1.273       .  A
C826       O1092   1.273       .  A
C826       O1095   1.273       .  A
C826       C1060   1.461       .  S
C827        O828   1.275       .  A
O828      Cd1091   2.083       .  S
O829        C845   1.272       .  A
O829       Zn835   1.980       .  S
C830        O846   1.272       .  A
C830        O843   1.270       .  A
C830        C872   1.459       .  S
O831        C982   1.276       .  A
O831       Cd838   2.098       .  S
O832        C988   1.272       .  A
O832       Cd841   2.030       .  S
O833        C985   1.276       .  A
O833       Cd837   2.098       .  S
O834        C983   1.277       .  A
O834       Cd837   2.101       .  S
Zn835       O846   2.025       .  S
Zn835       O848   1.991       .  S
Zn835       O840   1.919       .  S
O836        C847   1.271       .  A
O836       Cd841   2.050       .  S
Cd837       O839   2.069       .  S
Cd837       O978   2.024       .  S
Cd838       O842   2.077       .  S
Cd838       O851   2.108       .  S
Cd838       O978   2.028       .  S
O839        C849   1.274       .  A
O840       Cd975   2.024   1_554  S
O840       Cd976   2.028   1_554  S
O840       Cd841   1.971       .  S
Cd841       O843   2.059       .  S
O842        C849   1.275       .  A
C844        O969   1.276       .  A
C844        O848   1.271   1_556  A
C844       C1074   1.461       .  S
C845        O972   1.277   1_554  A
C845        C876   1.469       .  S
C847        O971   1.276   1_554  A
C847        C939   1.462   1_554  S
C849        C853   1.459       .  S
C850        O970   1.272       .  A
C850        O851   1.278       .  A
C850        C895   1.470       .  S
O852        C868   1.272       .  A
O852       Zn858   1.980       .  S
C853        O869   1.272       .  A
C853        O866   1.270       .  A
O854        C867   1.276       .  A
O854       Cd861   2.097       .  S
O855        C873   1.272       .  A
O855       Cd864   2.030       .  S
O856        C870   1.276       .  A
O856       Cd860   2.098       .  S
O857        C868   1.277       .  A
O857       Cd860   2.101       .  S
Zn858       O869   2.025       .  S
Zn858       O871   1.991       .  S
Zn858       O863   1.919       .  S
O859        C870   1.271       .  A
O859       Cd864   2.049       .  S
Cd860       O862   2.069       .  S
Cd860       O863   2.024       .  S
Cd861       O865   2.077       .  S
Cd861       O874   2.108       .  S
Cd861       O863   2.028       .  S
O862        C872   1.274       .  A
O863       Cd864   1.971       .  S
Cd864       O866   2.059       .  S
O865        C872   1.275       .  A
C867        O871   1.271       .  A
C867        C959   1.461       .  S
C868        C899   1.469       .  S
C870        C962   1.462       .  S
C873        O874   1.278       .  A
C873        C918   1.470       .  S
O875        C891   1.272       .  A
O875       Zn881   2.025       .  S
C876        O892   1.272       .  A
C876       O1027   1.277   1_554  A
O877       C1028   1.276       .  A
O877       Cd884   2.097   1_655  S
O878       Cd887   2.069       .  S
O879        C893   1.271       .  A
O879       Cd883   2.049       .  S
O880       Cd883   2.059       .  S
Zn881       O892   1.980       .  S
Zn881       O894   1.991       .  S
Zn881       O886   1.919       .  S
O882       C1031   1.276       .  A
Cd883       O885   2.030       .  S
Cd884       O897   2.077       .  S
Cd884      O1024   2.028   1_455  S
O885       C1033   1.272       .  A
O886      Cd1022   2.028   1_654  S
O886      Cd1025   2.023   1_554  S
Cd887       O889   2.101       .  S
Cd887      O1024   2.023       .  S
O888        C895   1.278       .  A
O889       C1014   1.277       .  A
C890       O1015   1.276       .  A
C890        O894   1.271   1_556  A
C890       C1075   1.461       .  S
C893       O1020   1.276   1_554  A
C893        C942   1.462   1_554  S
C895       O1023   1.272       .  A
O898        C914   1.272       .  A
O898       Zn904   2.025       .  S
C899        O915   1.272       .  A
C899        O912   1.277       .  A
O900        C913   1.276       .  A
O900       Cd907   2.097   1_655  S
O901       Cd910   2.069       .  S
O902        C916   1.271       .  A
O902       Cd906   2.049       .  S
O903       Cd906   2.059       .  S
Zn904       O915   1.980       .  S
Zn904       O917   1.991       .  S
Zn904       O909   1.919       .  S
O905        C916   1.276       .  A
Cd906       O908   2.030       .  S
Cd907       O920   2.077       .  S
Cd907       O909   2.028   1_455  S
O908        C918   1.272       .  A
O909       Cd910   2.023       .  S
Cd910       O912   2.101       .  S
O911        C918   1.278       .  A
C913        O917   1.271       .  A
C913        C960   1.461       .  S
C916        C965   1.462       .  S
O921        C937   1.273       .  A
O921       Zn927   2.012       .  S
C922        O938   1.274       .  A
O923       C1074   1.275   1_554  A
O923       Cd930   2.084       .  S
O924       C1080   1.274       .  A
O924       Cd933   2.069       .  S
O925        C939   1.275   1_554  A
O926       C1075   1.274   1_554  A
O926       Cd929   2.084       .  S
Zn927       O938   2.027       .  S
Zn927       O940   2.012       .  S
Zn927       O932   1.935       .  S
O928       C1077   1.274       .  A
O928       Cd933   2.070       .  S
Cd929       O931   2.072       .  S
Cd929      O1070   2.021   1_554  S
Cd930       O934   2.073       .  S
Cd930      O1070   2.020   1_554  S
O931        C941   1.273       .  A
O932      Cd1067   2.021       .  S
O932      Cd1068   2.020       .  S
Cd933       O935   2.068       .  S
O934        C941   1.273       .  A
C936       O1061   1.275       .  A
C936        O940   1.273       .  A
C936        C982   1.461       .  S
C937       O1064   1.275       .  A
C937       C1028   1.461       .  S
C939       O1066   1.274       .  A
C941        C945   1.461       .  S
C942       O1062   1.274       .  A
C942        O943   1.275   1_556  A
O944        C960   1.273       .  A
O944       Zn950   2.012       .  S
C945        O961   1.274       .  A
O946        C959   1.274       .  A
O946       Cd953   2.084       .  S
O947        C965   1.274       .  A
O947       Cd956   2.069       .  S
O948        C962   1.275       .  A
O949        C960   1.275       .  A
O949       Cd952   2.084       .  S
Zn950       O961   2.027       .  S
Zn950       O963   2.012       .  S
Zn950       O955   1.935       .  S
O951        C962   1.274       .  A
O951       Cd956   2.070       .  S
Cd952       O954   2.073       .  S
Cd952       O955   2.021       .  S
Cd953       O957   2.072       .  S
Cd953       O955   2.021       .  S
Cd956       O958   2.068       .  S
C959        O963   1.273       .  A
C965        O966   1.275       .  A
O967        C983   1.272       .  A
O967       Zn973   1.980       .  S
C968        O984   1.272       .  A
C968        O981   1.270       .  A
C968       C1010   1.459       .  S
O969       Cd976   2.098       .  S
O970       Cd979   2.030       .  S
O971       Cd975   2.098       .  S
O972       Cd975   2.101       .  S
Zn973       O984   2.025       .  S
Zn973       O986   1.991       .  S
Zn973       O978   1.919       .  S
O974        C985   1.271       .  A
O974       Cd979   2.050       .  S
Cd975       O977   2.069       .  S
Cd976       O980   2.077       .  S
Cd976       O989   2.108       .  S
O977        C987   1.274       .  A
O978       Cd979   1.971       .  S
Cd979       O981   2.059       .  S
O980        C987   1.275       .  A
C982        O986   1.271       .  A
C983       C1014   1.469       .  S
C985       C1077   1.462       .  S
C987        C991   1.459       .  S
C988        O989   1.278   1_554  A
C988       C1033   1.470       .  S
O990       C1006   1.272       .  A
O990       Zn996   1.980       .  S
C991       O1007   1.272       .  A
C991       O1004   1.270       .  A
O992       C1005   1.276       .  A
O992       Cd999   2.097       .  S
O993       C1011   1.272       .  A
O993      Cd1002   2.030       .  S
O994       C1008   1.276       .  A
O994       Cd998   2.098       .  S
O995       C1006   1.277       .  A
O995       Cd998   2.101       .  S
Zn996      O1007   2.025       .  S
Zn996      O1009   1.991       .  S
Zn996      O1001   1.919       .  S
O997       C1008   1.271       .  A
O997      Cd1002   2.049       .  S
Cd998      O1000   2.069       .  S
Cd998      O1001   2.024       .  S
Cd999      O1003   2.077       .  S
Cd999      O1012   2.108       .  S
Cd999      O1001   2.028       .  S
O1000      C1010   1.274       .  A
O1001     Cd1002   1.971       .  S
Cd1002     O1004   2.059       .  S
O1003      C1010   1.275       .  A
C1005      O1009   1.271       .  A
C1005      C1097   1.461       .  S
C1006      C1037   1.469       .  S
C1008      C1100   1.462       .  S
C1011      O1012   1.278       .  A
C1011      C1056   1.470       .  S
O1013      C1029   1.272       .  A
O1013     Zn1019   2.025       .  S
C1014      O1030   1.272       .  A
O1015     Cd1022   2.097   1_655  S
O1016     Cd1025   2.069       .  S
O1017      C1031   1.271       .  A
O1017     Cd1021   2.049       .  S
O1018     Cd1021   2.059       .  S
Zn1019     O1030   1.980       .  S
Zn1019     O1032   1.991       .  S
Zn1019     O1024   1.919       .  S
Cd1021     O1023   2.030       .  S
Cd1022     O1035   2.077       .  S
Cd1025     O1027   2.101       .  S
O1026      C1033   1.278   1_556  A
C1028      O1032   1.271       .  A
C1031      C1080   1.462       .  S
O1036      C1052   1.272       .  A
O1036     Zn1042   2.025       .  S
C1037      O1053   1.272       .  A
C1037      O1050   1.277       .  A
O1038      C1051   1.276       .  A
O1038     Cd1045   2.097   1_655  S
O1039     Cd1048   2.069       .  S
O1040      C1054   1.271       .  A
O1040     Cd1044   2.049       .  S
O1041     Cd1044   2.059       .  S
Zn1042     O1053   1.980       .  S
Zn1042     O1055   1.991       .  S
Zn1042     O1047   1.919       .  S
O1043      C1054   1.276       .  A
Cd1044     O1046   2.030       .  S
Cd1045     O1058   2.077       .  S
Cd1045     O1047   2.028   1_455  S
O1046      C1056   1.272       .  A
O1047     Cd1048   2.023       .  S
Cd1048     O1050   2.101       .  S
O1049      C1056   1.278       .  A
C1051      O1055   1.271       .  A
C1051      C1098   1.461       .  S
C1054      C1103   1.462       .  S
O1059      C1075   1.273       .  A
O1059     Zn1065   2.012       .  S
C1060      O1076   1.274       .  A
O1061     Cd1068   2.084       .  S
O1062     Cd1071   2.069       .  S
O1063      C1077   1.275       .  A
O1064     Cd1067   2.084       .  S
Zn1065     O1076   2.027       .  S
Zn1065     O1078   2.012       .  S
Zn1065     O1070   1.935       .  S
O1066     Cd1071   2.070       .  S
Cd1067     O1069   2.072       .  S
Cd1068     O1072   2.073       .  S
O1069      C1079   1.273       .  A
Cd1071     O1073   2.068       .  S
O1072      C1079   1.273       .  A
C1074      O1078   1.273       .  A
C1079      C1083   1.461       .  S
C1080      O1081   1.275       .  A
O1082      C1098   1.273       .  A
O1082     Zn1088   2.012       .  S
C1083      O1099   1.274       .  A
O1084      C1097   1.274       .  A
O1084     Cd1091   2.084       .  S
O1085      C1103   1.274       .  A
O1085     Cd1094   2.069       .  S
O1086      C1100   1.275       .  A
O1087      C1098   1.275       .  A
O1087     Cd1090   2.084       .  S
Zn1088     O1099   2.027       .  S
Zn1088     O1101   2.012       .  S
Zn1088     O1093   1.935       .  S
O1089      C1100   1.274       .  A
O1089     Cd1094   2.070       .  S
Cd1090     O1092   2.073       .  S
Cd1090     O1093   2.021       .  S
Cd1091     O1095   2.072       .  S
Cd1091     O1093   2.021       .  S
Cd1094     O1096   2.068       .  S
C1097      O1101   1.273       .  A
C1103      O1104   1.275       .  A
