geometry optimzed in LAMMPS
_audit_creation_date              2020-11-30 
_audit_creation_method            'lammps2cif' 
_symmetry_space_group_name_H-M    'P1' 
_symmetry_Int_Tables_number       1 
_symmetry_cell_setting            triclinic 
loop_ 
_symmetry_equiv_pos_as_xyz 
  x,y,z 
_cell_length_a                    39.74996402 
_cell_length_b                    40.34791983884565 
_cell_length_c                    68.77991699285673 
_cell_angle_alpha                 89.84113855962137 
_cell_angle_beta                  90.58243384504506 
_cell_angle_gamma                 89.6336363743049 
loop_ 
_atom_site_label 
_atom_site_type_symbol 
_atom_site_fract_x 
_atom_site_fract_y 
_atom_site_fract_z 
_atom_site_charge 
N1          N  0.39545505  0.30118557  0.38060184    -0.36500
N2          N  0.41300566  0.24652248  0.35381790    -0.57000
N3          N  0.39127365  0.20028145  0.38277558    -0.36500
N4          N  0.37690869  0.25479127  0.41045644    -0.57000
C5          C  0.41236111  0.31789993  0.36680831     0.27100
C6          C  0.39130232  0.32183717  0.39588851     0.27100
C7          C  0.40405900  0.17868739  0.36968904     0.27100
C8          C  0.38667109  0.18361240  0.39956405     0.27100
C9          C  0.41830294  0.27273722  0.34190421     0.35700
C10         C  0.41428525  0.21873179  0.34272579     0.35700
C11         C  0.36446792  0.28261403  0.41868142     0.35700
C12         C  0.36313330  0.22915759  0.42006359     0.35700
C13         C  0.41911162  0.34968497  0.37349153    -0.21700
C14         C  0.40571597  0.35217406  0.39176559    -0.21700
C15         C  0.40719941  0.14768379  0.37841326    -0.21700
C16         C  0.39678325  0.15094101  0.39722788    -0.21700
C17         C  0.42369414  0.26148921  0.32315614    -0.22800
C18         C  0.42143799  0.22740425  0.32370636    -0.22800
C19         C  0.34322721  0.27462629  0.43381353    -0.22800
C20         C  0.34248035  0.24065657  0.43474208    -0.22800
C21         C  0.41969636  0.30654903  0.34778150    -0.18100
C22         C  0.37267981  0.31508170  0.41286476    -0.18100
C23         C  0.36961033  0.19550007  0.41613662    -0.18100
C24         C  0.41103983  0.18563930  0.34984207    -0.18100
H25         H  0.43188556  0.36934303  0.36585273     0.14800
H26         H  0.40617827  0.37396992  0.40090360     0.14800
H27         H  0.41518431  0.12456401  0.37203194     0.14800
H28         H  0.39541175  0.13102908  0.40776333     0.14800
H29         H  0.42911280  0.27627039  0.31042608     0.13000
H30         H  0.42510940  0.21094369  0.31151278     0.13000
H31         H  0.32959369  0.29146090  0.44314005     0.13000
H32         H  0.32815290  0.22609138  0.44494039     0.13000
H33         H  0.38337566  0.27824677  0.37857565     0.26300
H34         H  0.38151121  0.22410375  0.37970545     0.26300
N35         N  0.13951080  0.20149304  0.37667551    -0.36500
N36         N  0.13761177  0.25337109  0.34629118    -0.57000
N37         N  0.14203758  0.30210064  0.37685876    -0.36500
N38         N  0.14668341  0.25032816  0.40651354    -0.57000
C39         C  0.14451797  0.18392684  0.36023812     0.27100
C40         C  0.15030892  0.18239201  0.39177989     0.27100
C41         C  0.14601830  0.32142595  0.36092156     0.27100
C42         C  0.15278471  0.31974655  0.39239895     0.27100
C43         C  0.12769347  0.22676818  0.33579578     0.35700
C44         C  0.12886852  0.28072131  0.33584511     0.35700
C45         C  0.14306791  0.22344717  0.41803746     0.35700
C46         C  0.14474196  0.27703424  0.41820053     0.35700
C47         C  0.15860008  0.15334080  0.36497853    -0.21700
C48         C  0.16278946  0.15264253  0.38480380    -0.21700
C49         C  0.15944845  0.35164666  0.36637089    -0.21700
C50         C  0.16392691  0.35053401  0.38621074    -0.21700
C51         C  0.11356066  0.23726431  0.31829065    -0.22800
C52         C  0.11414713  0.27144438  0.31837353    -0.22800
C53         C  0.13862354  0.23313522  0.43716149    -0.22800
C54         C  0.13982647  0.26715530  0.43727595    -0.22800
C55         C  0.13270659  0.19321868  0.34152760    -0.18100
C56         C  0.14762465  0.19045757  0.41173179    -0.18100
C57         C  0.15041897  0.30991343  0.41213330    -0.18100
C58         C  0.13456835  0.31381707  0.34192874    -0.18100
H59         H  0.16498758  0.13323893  0.35533109     0.14800
H60         H  0.17318456  0.13215774  0.39314325     0.14800
H61         H  0.16488575  0.37253674  0.35703227     0.14800
H62         H  0.17350559  0.37050278  0.39512073     0.14800
H63         H  0.10386306  0.22192229  0.30666226     0.13000
H64         H  0.10479183  0.28758166  0.30691642     0.13000
H65         H  0.13576762  0.21733808  0.44977223     0.13000
H66         H  0.13802510  0.28279351  0.44998908     0.13000
H67         H  0.12542192  0.22324097  0.37758473     0.26300
H68         H  0.12862098  0.28011025  0.37739944     0.26300
N69         N  0.31030932  0.46537361  0.47553579    -0.06000
N70         N  0.33133211  0.44104214  0.47103432    -0.58100
N71         N  0.29700401  0.04000317  0.46439242    -0.05700
N72         N  0.29699743  0.06707012  0.45378583    -0.60200
N73         N  0.32227808  0.04016230  0.47688213    -0.05200
N74         N  0.34006028  0.06760821  0.47493187    -0.58100
N75         N  0.28589781  0.46713982  0.46254610    -0.04900
N76         N  0.28973985  0.44444858  0.44900556    -0.60600
C77         C  0.31814920  0.42825905  0.45436132     0.96200
C78         C  0.32381660  0.08415486  0.46040099     0.96000
N79         N  0.19607185  0.04008594  0.47895053    -0.06200
N80         N  0.17640670  0.06656558  0.47692974    -0.58700
N81         N  0.20833097  0.46568484  0.46408200    -0.04300
N82         N  0.20844816  0.43870050  0.45333216    -0.59900
N83         N  0.18425220  0.46443735  0.47705845    -0.06200
N84         N  0.16712668  0.43653015  0.47513028    -0.58900
N85         N  0.21934661  0.04002525  0.46552003    -0.03900
N86         N  0.21639509  0.06640432  0.45427238    -0.60000
Mn87       Mn  0.25835565  0.00165499  0.46390541     1.18400
C88         C  0.18974767  0.08283044  0.46156490     0.98300
C89         C  0.18276399  0.42074651  0.46032647     0.99000
N90         N  0.32814889  0.03813021  0.52239608    -0.06200
N91         N  0.34868346  0.06357808  0.52529702    -0.62500
N92         N  0.28623835  0.46078963  0.53465003    -0.05000
N93         N  0.28820450  0.43374040  0.54536496    -0.63200
N94         N  0.31036819  0.46127330  0.52168888    -0.05700
N95         N  0.32965112  0.43455849  0.52359987    -0.62800
N96         N  0.30494663  0.03756822  0.53586145    -0.04600
N97         N  0.30908236  0.06223479  0.54810334    -0.63500
Mn98       Mn  0.32659820  0.00044822  0.49880196     1.10700
C99         C  0.33640339  0.07831920  0.54153483     0.99500
C100        C  0.31514256  0.41748746  0.53828881     0.99600
N101        N  0.18404874  0.46205232  0.52254403    -0.05700
N102        N  0.16450935  0.43589782  0.52520548    -0.61100
N103        N  0.22625219  0.03941918  0.53702138    -0.05000
N104        N  0.22454347  0.06490555  0.54887256    -0.57800
N105        N  0.20088256  0.03995347  0.52457469    -0.06300
N106        N  0.18140106  0.06605665  0.52776801    -0.60700
N107        N  0.20874649  0.46200713  0.53535075    -0.05300
N108        N  0.20679914  0.43615764  0.54685114    -0.57800
Mn109      Mn  0.19665989  0.00130932  0.50188181     1.20200
Mn110      Mn  0.26496066  0.00044957  0.53676153     1.10100
Cl111      Cl  0.26162633  0.00082539  0.50035682    -0.85800
C112        C  0.17923423  0.41997569  0.54054136     0.96500
C113        C  0.19657599  0.08145586  0.54298431     0.96300
N114        N  0.37285589  0.30383246  0.62259872    -0.36500
N115        N  0.37712780  0.25457250  0.65336560    -0.57000
N116        N  0.37848880  0.20349234  0.62260381    -0.36500
N117        N  0.37131231  0.25298599  0.59267157    -0.57000
C118        C  0.36695144  0.32222286  0.63866341     0.27100
C119        C  0.36225654  0.32186301  0.60705584     0.27100
C120        C  0.37636218  0.18484631  0.63890064     0.27100
C121        C  0.37028730  0.18383140  0.60732021     0.27100
C122        C  0.38541219  0.28184206  0.66373278     0.35700
C123        C  0.38871649  0.22831262  0.66369663     0.35700
C124        C  0.37190620  0.27992360  0.58102466     0.35700
C125        C  0.37363298  0.22620411  0.58100047     0.35700
C126        C  0.35261631  0.35229807  0.63331046    -0.21700
C127        C  0.34947374  0.35203944  0.61339020    -0.21700
C128        C  0.36731950  0.15280354  0.63395188    -0.21700
C129        C  0.36326863  0.15220717  0.61408249    -0.21700
C130        C  0.40149325  0.27284567  0.68092394    -0.22800
C131        C  0.40332592  0.23884429  0.68098804    -0.22800
C132        C  0.37493693  0.27023624  0.56178439    -0.22800
C133        C  0.37589713  0.23614797  0.56176884    -0.22800
C134        C  0.37881795  0.31467528  0.65762072    -0.18100
C135        C  0.36520070  0.31262845  0.58725377    -0.18100
C136        C  0.37028191  0.19308612  0.58737090    -0.18100
C137        C  0.38607091  0.19493196  0.65781842    -0.18100
H138        H  0.34600576  0.37264873  0.64279016     0.14800
H139        H  0.33961409  0.37218011  0.60455824     0.14800
H140        H  0.36442604  0.13185053  0.64363529     0.14800
H141        H  0.35652717  0.13067921  0.60557491     0.14800
H142        H  0.41132600  0.28902890  0.69210527     0.13000
H143        H  0.41478145  0.22365157  0.69226873     0.13000
H144        H  0.37513086  0.28604444  0.54904552     0.13000
H145        H  0.37715725  0.22048810  0.54904340     0.13000
H146        H  0.38744560  0.28241302  0.62211878     0.26300
H147        H  0.38884614  0.22698507  0.62197846     0.26300
N148        N  0.12964506  0.19981340  0.62194910    -0.36500
N149        N  0.11194596  0.24943703  0.65008576    -0.57000
N150        N  0.11896593  0.29888243  0.62037134    -0.36500
N151        N  0.13438673  0.24948654  0.59142609    -0.57000
C152        C  0.11742734  0.18085966  0.63644860     0.27100
C153        C  0.12965572  0.18106385  0.60572822     0.27100
C154        C  0.10295452  0.31645147  0.63422914     0.27100
C155        C  0.11697161  0.31672097  0.60376454     0.27100
C156        C  0.11702504  0.22355583  0.66215221     0.35700
C157        C  0.11054344  0.27660912  0.66135237     0.35700
C158        C  0.14880554  0.22350514  0.58241024     0.35700
C159        C  0.14444756  0.27677128  0.58179665     0.35700
C160        C  0.10944758  0.14970760  0.62933007    -0.21700
C161        C  0.11738911  0.14979206  0.60990738    -0.21700
C162        C  0.09027209  0.34563637  0.62624742    -0.21700
C163        C  0.09934006  0.34588905  0.60699897    -0.21700
C164        C  0.11885437  0.23420712  0.68126846    -0.22800
C165        C  0.11486258  0.26806480  0.68075584    -0.22800
C166        C  0.16746554  0.23415175  0.56669701    -0.22800
C167        C  0.16477707  0.26810539  0.56634095    -0.22800
C168        C  0.11551133  0.19038899  0.65614240    -0.18100
C169        C  0.14432540  0.19031682  0.58797852    -0.18100
C170        C  0.13447271  0.30919863  0.58659837    -0.18100
C171        C  0.10279176  0.30845364  0.65423985    -0.18100
H172        H  0.09968619  0.12884660  0.63738095     0.14800
H173        H  0.11515142  0.12901696  0.60006480     0.14800
H174        H  0.07691624  0.36524058  0.63368628     0.14800
H175        H  0.09446619  0.36570359  0.59668933     0.14800
H176        H  0.12181005  0.21906531  0.69419624     0.13000
H177        H  0.11434182  0.28437277  0.69321724     0.13000
H178        H  0.18168571  0.21907896  0.55666220     0.13000
H179        H  0.17648472  0.28447612  0.55595511     0.13000
H180        H  0.14158782  0.22251198  0.62356243     0.26300
H181        H  0.13486480  0.27868587  0.62272776     0.26300
N182        N  0.48511332  0.43182951  0.27126451    -0.06000
N183        N  0.48391558  0.40571541  0.28267703    -0.58100
N184        N  0.45256982  0.46086799  0.23109415    -0.05700
N185        N  0.42747034  0.45739416  0.21866676    -0.60200
N186        N  0.47742974  0.44032512  0.22705678    -0.05200
N187        N  0.46891252  0.42159533  0.21192577    -0.58100
N188        N  0.46066480  0.45284724  0.27525578    -0.04900
N189        N  0.44153475  0.44040327  0.28923891    -0.60600
C190        C  0.45684371  0.41102938  0.29385889     0.96200
C191        C  0.43780415  0.43313947  0.20673187     0.96000
N192        N  0.47020001  0.06299443  0.23068761    -0.06200
N193        N  0.46007545  0.08432031  0.21706963    -0.58700
N194        N  0.45212934  0.04027715  0.27722187    -0.04300
N195        N  0.43023801  0.04911606  0.29081342    -0.59900
N196        N  0.47392749  0.06434063  0.27462216    -0.06200
N197        N  0.46801637  0.08921577  0.28637096    -0.58900
N198        N  0.44752212  0.03965716  0.23284726    -0.03900
N199        N  0.42258591  0.04360197  0.22034102    -0.60000
Mn200      Mn  0.45316799  0.49617809  0.25525969     1.18400
C201        C  0.43060703  0.07127107  0.21054806     0.98300
C202        C  0.44096708  0.07969695  0.29640430     0.99000
N203        N  0.06011202  0.44883856  0.22498146    -0.06200
N204        N  0.07051152  0.43170960  0.20966657    -0.62500
N205        N  0.07900207  0.46189067  0.27315159    -0.05000
N206        N  0.09955792  0.45250281  0.28756785    -0.63200
N207        N  0.05757924  0.43790207  0.26930170    -0.05700
N208        N  0.06210464  0.41272103  0.28128140    -0.62800
N209        N  0.08166697  0.47256319  0.22882272    -0.04600
N210        N  0.10580645  0.47319975  0.21595654    -0.63500
Mn211      Mn  0.01899593  0.44020136  0.24624460     1.10700
C212        C  0.09877903  0.44794518  0.20396134     0.99500
C213        C  0.08808005  0.42192841  0.29266725     0.99600
N214        N  0.05103558  0.06374258  0.27453754    -0.05700
N215        N  0.05522377  0.08896449  0.28618900    -0.61100
N216        N  0.07670541  0.04359059  0.23226297    -0.05000
N217        N  0.10114373  0.04995628  0.22016182    -0.57800
N218        N  0.05193193  0.06524380  0.23037686    -0.06300
N219        N  0.06002795  0.08782948  0.21711422    -0.60700
N220        N  0.07592856  0.04229813  0.27626509    -0.05300
N221        N  0.09878191  0.05407119  0.28876763    -0.57800
Mn222      Mn  0.01138913  0.06309040  0.25279462     1.20200
Mn223      Mn  0.07874631  0.50632950  0.25325266     1.10100
Cl224      Cl  0.01465802  0.50249812  0.25146869    -0.85800
C225        C  0.08474891  0.08306845  0.29513040     0.96500
C226        C  0.09062981  0.07723861  0.21070382     0.96300
N227        N  0.47024586  0.18548136  0.97872278    -0.06000
N228        N  0.44536501  0.16406732  0.97631511    -0.58100
N229        N  0.05495852  0.20805613  0.96674266    -0.05700
N230        N  0.08356852  0.20459027  0.95733298    -0.60200
N231        N  0.05256555  0.18523924  0.98034350    -0.05200
N232        N  0.07931410  0.16563237  0.98032787    -0.58100
N233        N  0.46929069  0.20798463  0.96483325    -0.04900
N234        N  0.44373018  0.20273615  0.95293113    -0.60600
C235        C  0.42904050  0.17533579  0.96014852     0.96200
C236        C  0.09867505  0.17828345  0.96610536     0.96000
N237        N  0.05188357  0.31065365  0.97613592    -0.06200
N238        N  0.07637505  0.33201100  0.97332502    -0.58700
N239        N  0.46829774  0.28570764  0.96159393    -0.04300
N240        N  0.44168489  0.28831601  0.95000345    -0.59900
N241        N  0.46982633  0.31112847  0.97351640    -0.06200
N242        N  0.44431951  0.33166802  0.97012043    -0.58900
N243        N  0.05409168  0.28579249  0.96387188    -0.03900
N244        N  0.08035682  0.28953262  0.95255278    -0.60000
Mn245      Mn  0.01584021  0.24662978  0.96273630     1.18400
C246        C  0.09406754  0.31828029  0.95872347     0.98300
C247        C  0.42676558  0.31700304  0.95551134     0.99000
N248        N  0.04876290  0.18912377  0.02544817    -0.06200
N249        N  0.07525051  0.17001249  0.02932408    -0.62500
N250        N  0.47474512  0.21678676  0.03690032    -0.05000
N251        N  0.45064149  0.21484993  0.04987658    -0.63200
N252        N  0.47346195  0.19134656  0.02497404    -0.05700
N253        N  0.44853891  0.17136765  0.02979503    -0.62800
N254        N  0.04795130  0.21434377  0.03752273    -0.04600
N255        N  0.07365831  0.21298032  0.04974483    -0.63500
Mn256      Mn  0.01119726  0.18576074  0.00135594     1.10700
C257        C  0.09060497  0.18532879  0.04452433     0.99500
C258        C  0.43450851  0.18644749  0.04538436     0.99600
N259        N  0.47367245  0.31653772  0.01909164    -0.05700
N260        N  0.44726394  0.33633874  0.02134021    -0.61100
N261        N  0.04698383  0.29230482  0.03546155    -0.05000
N262        N  0.07041496  0.29776408  0.04872722    -0.57800
N263        N  0.04811128  0.31496820  0.02171461    -0.06300
N264        N  0.07262362  0.33630066  0.02541108    -0.60700
N265        N  0.47518335  0.29432827  0.03310285    -0.05300
N266        N  0.45007796  0.29846540  0.04510711    -0.57800
Mn267      Mn  0.01123561  0.31351249  0.99726325     1.20200
Mn268      Mn  0.00885069  0.25291805  0.03568391     1.10100
Cl269      Cl  0.01167299  0.24970210  0.99925241    -0.85800
C270        C  0.43276842  0.32457634  0.03770743     0.96500
C271        C  0.08637544  0.32522680  0.04240659     0.96300
N272        N  0.30650452  0.38870389  0.87514329    -0.36500
N273        N  0.25738537  0.38070475  0.90542291    -0.57000
N274        N  0.20360712  0.38805259  0.87661538    -0.36500
N275        N  0.25267484  0.39318527  0.84569936    -0.57000
C276        C  0.32686634  0.37806666  0.88985458     0.27100
C277        C  0.32422913  0.38612626  0.85852060     0.27100
C278        C  0.18672273  0.37464597  0.89167186     0.27100
C279        C  0.18429304  0.38374391  0.86050636     0.27100
C280        C  0.28536379  0.38042527  0.91677333     0.35700
C281        C  0.23078756  0.38004188  0.91748694     0.35700
C282        C  0.27916469  0.40191115  0.83466230     0.35700
C283        C  0.22464145  0.40217768  0.83561741     0.35700
C284        C  0.35802659  0.36930988  0.88245091    -0.21700
C285        C  0.35637663  0.37445926  0.86273819    -0.21700
C286        C  0.15651277  0.36160676  0.88496378    -0.21700
C287        C  0.15492445  0.36753293  0.86532638    -0.21700
C288        C  0.27650846  0.38000705  0.93620258    -0.22800
C289        C  0.24191568  0.37993112  0.93666356    -0.22800
C290        C  0.26791994  0.41600865  0.81735806    -0.22800
C291        C  0.23333528  0.41625662  0.81798665    -0.22800
C292        C  0.31848129  0.37619413  0.90982828    -0.18100
C293        C  0.31330806  0.39647602  0.83981443    -0.18100
C294        C  0.19141457  0.39607274  0.84178774    -0.18100
C295        C  0.19712579  0.37473673  0.91141716    -0.18100
H296        H  0.37985371  0.36025429  0.89041244     0.14800
H297        H  0.37664683  0.37020702  0.85263322     0.14800
H298        H  0.13737232  0.34928759  0.89335731     0.14800
H299        H  0.13442081  0.36078935  0.85567630     0.14800
H300        H  0.29323600  0.37867862  0.94870123     0.13000
H301        H  0.22673014  0.37840909  0.94960529     0.13000
H302        H  0.28304290  0.42520276  0.80553542     0.13000
H303        H  0.21656367  0.42561298  0.80672958     0.13000
H304        H  0.28313330  0.40004599  0.87646138     0.26300
H305        H  0.22512611  0.40252638  0.87756435     0.26300
N306        N  0.20521527  0.10817666  0.88253845    -0.36500
N307        N  0.25865876  0.11804752  0.91031038    -0.57000
N308        N  0.30771620  0.11097531  0.87976062    -0.36500
N309        N  0.25471699  0.10314092  0.85116078    -0.57000
C310        C  0.18793842  0.12052065  0.89782691     0.27100
C311        C  0.18593316  0.11301001  0.86643431     0.27100
C312        C  0.32633758  0.12594078  0.89372498     0.27100
C313        C  0.32462081  0.11393835  0.86289718     0.27100
C314        C  0.23292536  0.11511621  0.92281830     0.35700
C315        C  0.28708522  0.11842640  0.92117051     0.35700
C316        C  0.22651499  0.09275987  0.84190234     0.35700
C317        C  0.28116058  0.09163168  0.84081042     0.35700
C318        C  0.15735470  0.13331810  0.89131274    -0.21700
C319        C  0.15604799  0.12846710  0.87153590    -0.21700
C320        C  0.35527285  0.13882736  0.88557871    -0.21700
C321        C  0.35417215  0.13122882  0.86608584    -0.21700
C322        C  0.24512058  0.11297001  0.94174910    -0.22800
C323        C  0.27951911  0.11529869  0.94070497    -0.22800
C324        C  0.23507991  0.07456786  0.82558954    -0.22800
C325        C  0.26970810  0.07390910  0.82487801    -0.22800
C326        C  0.19885613  0.11998000  0.91752152    -0.18100
C327        C  0.19330616  0.10097252  0.84760965    -0.18100
C328        C  0.31529853  0.09867320  0.84520837    -0.18100
C329        C  0.31903305  0.12603956  0.91380307    -0.18100
H330        H  0.13789448  0.14490949  0.89988665     0.14800
H331        H  0.13531353  0.13532094  0.86199417     0.14800
H332        H  0.37545348  0.15171854  0.89297737     0.14800
H333        H  0.37326802  0.13710306  0.85553360     0.14800
H334        H  0.23064662  0.11157282  0.95496763     0.13000
H335        H  0.29685277  0.11594595  0.95293513     0.13000
H336        H  0.21816518  0.06296884  0.81527099     0.13000
H337        H  0.28467700  0.06181814  0.81388924     0.13000
H338        H  0.22723323  0.09409942  0.88326620     0.26300
H339        H  0.28693129  0.09591477  0.88197222     0.26300
N340        N  0.06590653  0.46123249  0.72002312    -0.06000
N341        N  0.08453250  0.43449819  0.71696838    -0.58100
N342        N  0.04756872  0.03973840  0.70958938    -0.05700
N343        N  0.05062402  0.06453448  0.69731236    -0.60200
N344        N  0.07086844  0.04097529  0.72324181    -0.05200
N345        N  0.09084021  0.06664971  0.72030848    -0.58100
N346        N  0.04200012  0.46365008  0.70673538    -0.04900
N347        N  0.04344686  0.43865490  0.69452201    -0.60600
C348        C  0.07004276  0.42084063  0.70101373     0.96200
C349        C  0.07764100  0.08105116  0.70405854     0.96000
N350        N  0.44020575  0.04139343  0.72111848    -0.06200
N351        N  0.41965643  0.06700769  0.71820732    -0.58700
N352        N  0.46301775  0.46767667  0.70741894    -0.04300
N353        N  0.45903125  0.44441261  0.69424145    -0.59900
N354        N  0.43907018  0.46640845  0.72039291    -0.06200
N355        N  0.41819250  0.44184583  0.71623982    -0.58900
N356        N  0.46426113  0.04152843  0.70817183    -0.03900
N357        N  0.46084718  0.06690957  0.69630689    -0.60000
Mn358      Mn  0.00489413  0.50359607  0.70663988     1.18400
C359        C  0.43304478  0.08270602  0.70260672     0.98300
C360        C  0.43100559  0.42837072  0.69976403     0.99000
N361        N  0.06934309  0.03904816  0.76991575    -0.06200
N362        N  0.09446619  0.05752689  0.77620122    -0.62500
N363        N  0.04328475  0.45777688  0.77937063    -0.05000
N364        N  0.05181973  0.43689454  0.79344884    -0.63200
N365        N  0.06672051  0.45792831  0.76598237    -0.05700
N366        N  0.09112731  0.43691242  0.77069025    -0.62800
N367        N  0.04568954  0.03763825  0.78318511    -0.04600
N368        N  0.05467686  0.05481851  0.79869788    -0.63500
Mn369      Mn  0.06879830  0.49764801  0.74388166     1.10700
C370        C  0.08505031  0.06743243  0.79413902     0.99500
C371        C  0.08169944  0.42365875  0.78788282     0.99600
N372        N  0.43893685  0.46293875  0.76644294    -0.05700
N373        N  0.41311407  0.44398316  0.77067213    -0.61100
N374        N  0.46273698  0.03786801  0.78118020    -0.05000
N375        N  0.45253053  0.05613651  0.79598354    -0.57800
N376        N  0.43953529  0.03829424  0.76732384    -0.06300
N377        N  0.41374850  0.05709967  0.77243651    -0.60700
N378        N  0.46194572  0.46120302  0.78035788    -0.05300
N379        N  0.45161536  0.44136804  0.79436077    -0.57800
Mn380      Mn  0.43867027  0.50283821  0.74464332     1.20200
Mn381      Mn  0.00392350  0.49713392  0.78020396     1.10100
Cl382      Cl  0.00449286  0.50046795  0.74333972    -0.85800
C383        C  0.42122847  0.43044809  0.78807738     0.96500
C384        C  0.42203220  0.06846720  0.79032947     0.96300
N385        N  0.26308158  0.14000141  0.09784183    -0.36500
N386        N  0.31308446  0.13108474  0.12751121    -0.57000
N387        N  0.26029803  0.12157227  0.15695880    -0.36500
N388        N  0.21026187  0.12779569  0.12633740    -0.57000
C389        C  0.29086432  0.14024283  0.08667060     0.27100
C390        C  0.23622556  0.13765739  0.08581768     0.27100
C391        C  0.28775639  0.10873294  0.16611432     0.27100
C392        C  0.23269976  0.10946142  0.16593099     0.27100
C393        C  0.33322128  0.14269765  0.11335166     0.35700
C394        C  0.33172098  0.13072486  0.14397296     0.35700
C395        C  0.19153998  0.13881901  0.11108469     0.35700
C396        C  0.19031253  0.12984917  0.14213488     0.35700
C397        C  0.28155441  0.13817336  0.06724352    -0.21700
C398        C  0.24697887  0.13655330  0.06669859    -0.21700
C399        C  0.27754059  0.08854519  0.18128132    -0.21700
C400        C  0.24278059  0.08886344  0.18109204    -0.21700
C401        C  0.36487452  0.14964230  0.12083993    -0.22800
C402        C  0.36395566  0.14198769  0.14025185    -0.22800
C403        C  0.15951429  0.14741192  0.11719425    -0.22800
C404        C  0.15888426  0.14215106  0.13684671    -0.22800
C405        C  0.32400958  0.14516685  0.09353123    -0.18100
C406        C  0.20240290  0.14059576  0.09156733    -0.18100
C407        C  0.19885047  0.11724032  0.16079073    -0.18100
C408        C  0.32167570  0.11584758  0.16153399    -0.18100
H409        H  0.29789202  0.13869479  0.05475434     0.14800
H410        H  0.23147796  0.13575358  0.05368315     0.14800
H411        H  0.29347600  0.07486713  0.19136894     0.14800
H412        H  0.22677845  0.07528712  0.19090432     0.14800
H413        H  0.38657064  0.15856099  0.11306434     0.13000
H414        H  0.38492106  0.14359298  0.15036526     0.13000
H415        H  0.13868696  0.15661778  0.10843386     0.13000
H416        H  0.13747108  0.14640637  0.14612669     0.13000
H417        H  0.26202773  0.14593121  0.11247813     0.26300
H418        H  0.26045563  0.13988676  0.14627344     0.26300
N419        N  0.26771132  0.39464224  0.14936508    -0.36500
N420        N  0.21375339  0.38917636  0.11997230    -0.57000
N421        N  0.26270375  0.38044729  0.08930649    -0.36500
N422        N  0.31690733  0.38790363  0.11859743    -0.57000
C423        C  0.24089860  0.40436613  0.16008066     0.27100
C424        C  0.29606293  0.40276575  0.15947817     0.27100
C425        C  0.23462037  0.36948265  0.08009352     0.27100
C426        C  0.28922734  0.36923046  0.07904543     0.27100
C427        C  0.19450929  0.39703425  0.13536804     0.35700
C428        C  0.19254748  0.38711967  0.10452128     0.35700
C429        C  0.33867908  0.39042253  0.13383662     0.35700
C430        C  0.33579765  0.38240336  0.10262375     0.35700
C431        C  0.25238103  0.41791910  0.17740755    -0.21700
C432        C  0.28697318  0.41733016  0.17690485    -0.21700
C433        C  0.24338811  0.35196893  0.06359121    -0.21700
C434        C  0.27782328  0.35193426  0.06286727    -0.21700
C435        C  0.16110031  0.40051491  0.12951060    -0.22800
C436        C  0.15991770  0.39429738  0.11002249    -0.22800
C437        C  0.37140019  0.38623709  0.12737815    -0.22800
C438        C  0.36962678  0.38208971  0.10770337    -0.22800
C439        C  0.20631559  0.40272087  0.15454539    -0.18100
C440        C  0.32996143  0.39818465  0.15335849    -0.18100
C441        C  0.32353481  0.37305895  0.08399997    -0.18100
C442        C  0.20120165  0.37469419  0.08609635    -0.18100
H443        H  0.23742705  0.42825448  0.18899809     0.14800
H444        H  0.30352129  0.42728226  0.18799534     0.14800
H445        H  0.22673219  0.33999186  0.05327581     0.14800
H446        H  0.29276503  0.33971189  0.05190712     0.14800
H447        H  0.13963304  0.40698171  0.13830792     0.13000
H448        H  0.13743339  0.39422784  0.10100918     0.13000
H449        H  0.39444186  0.38586362  0.13586951     0.13000
H450        H  0.39091408  0.37761227  0.09835667     0.13000
H451        H  0.26660096  0.38143808  0.13645043     0.26300
H452        H  0.26380188  0.39622523  0.10121788     0.26300
C453        C  0.13839898  0.07376023  0.84024736    -0.12100
C454        C  0.16441165  0.09455085  0.83403221     0.04900
C455        C  0.16224807  0.10862006  0.81523382    -0.07400
C456        C  0.13580371  0.09983256  0.80267734    -0.08200
C457        C  0.11017280  0.07856554  0.80876421    -0.02700
C458        C  0.11103960  0.06635654  0.82806482     0.04100
N459        N  0.08501392  0.04570366  0.83545414     0.66600
H460        H  0.13937985  0.06309276  0.85472776     0.15500
H461        H  0.13510666  0.11001335  0.78807634     0.15200
N462        N  0.18586452  0.13280950  0.80891120     0.74300
O463        O  0.08961222  0.01475607  0.83626381    -0.39100
O464        O  0.06182900  0.05864217  0.84534121    -0.39100
O465        O  0.20647730  0.12535833  0.79577014    -0.39800
O466        O  0.18008938  0.16297698  0.81243209    -0.39800
C467        C  0.39675006  0.06542644  0.82331852    -0.12100
C468        C  0.39570403  0.07873838  0.80445335     0.04900
C469        C  0.36788757  0.09893164  0.79903615    -0.07400
C470        C  0.34181101  0.10488151  0.81229849    -0.08200
C471        C  0.34248832  0.09065609  0.83095785    -0.02700
C472        C  0.37037001  0.07060492  0.83635502     0.04100
N473        N  0.37170290  0.05421653  0.85480300     0.66600
H474        H  0.41765686  0.04980805  0.82781479     0.15500
H475        H  0.32109079  0.12103197  0.80807781     0.15200
N476        N  0.36637598  0.11479807  0.78045589     0.74300
O477        O  0.35882921  0.02585937  0.85646914    -0.39100
O478        O  0.39210561  0.06412952  0.86766892    -0.39100
O479        O  0.34586254  0.10444380  0.76777688    -0.39800
O480        O  0.37868962  0.14337062  0.77860786    -0.39800
C481        C  0.15927681  0.38338956  0.81107747    -0.12100
C482        C  0.16249896  0.40210969  0.82816465     0.04900
C483        C  0.13727882  0.42556460  0.83263611    -0.07400
C484        C  0.11003440  0.43050100  0.81989979    -0.08200
C485        C  0.10756928  0.41303337  0.80234286    -0.02700
C486        C  0.13223287  0.38882914  0.79811228     0.04100
N487        N  0.12974678  0.36900713  0.78099452     0.66600
H488        H  0.17794702  0.36460640  0.80775939     0.15500
H489        H  0.09153568  0.44932912  0.82335129     0.15200
N490        N  0.13980264  0.44568708  0.84965036     0.74300
O491        O  0.14707941  0.37641175  0.76636494    -0.39100
O492        O  0.11724207  0.34041007  0.78218196    -0.39100
O493        O  0.15575124  0.47258990  0.84889101    -0.39800
O494        O  0.12050224  0.44034472  0.86375346    -0.39800
C495        C  0.35965404  0.43286785  0.82958840    -0.12100
C496        C  0.34001741  0.40492816  0.82571473     0.04900
C497        C  0.34754015  0.38496799  0.80950208    -0.07400
C498        C  0.37445072  0.39340970  0.79744368    -0.08200
C499        C  0.39445307  0.42102801  0.80160918    -0.02700
C500        C  0.38666897  0.44103348  0.81774768     0.04100
N501        N  0.40437896  0.47104575  0.82148988     0.66600
H502        H  0.35383218  0.44851822  0.84191223     0.15500
H503        H  0.38000450  0.37814828  0.78492139     0.15200
N504        N  0.32883730  0.35564672  0.80544876     0.74300
O505        O  0.39490568  0.49728439  0.81300928    -0.39100
O506        O  0.42387425  0.47283144  0.83603666    -0.39100
O507        O  0.30983328  0.35482584  0.79065355    -0.39800
O508        O  0.33722936  0.32885145  0.81372125    -0.39800
C509        C  0.17113759  0.18482702  0.07469583    -0.12100
C510        C  0.17734631  0.15101200  0.07672267     0.04900
C511        C  0.15693647  0.12815805  0.06680611    -0.07400
C512        C  0.12971278  0.13963809  0.05536623    -0.08200
C513        C  0.12194844  0.17371922  0.05441052    -0.02700
C514        C  0.14337853  0.19627966  0.06412285     0.04100
N515        N  0.13575288  0.23072866  0.06505745     0.66600
H516        H  0.18653061  0.20240539  0.08264116     0.15500
H517        H  0.11356919  0.12184607  0.04817126     0.15200
N518        N  0.16253014  0.09337883  0.06923605     0.74300
O519        O  0.12056705  0.24125281  0.07984898    -0.39100
O520        O  0.15254573  0.25068325  0.05492889    -0.39100
O521        O  0.14946266  0.07858167  0.08344387    -0.39800
O522        O  0.18579977  0.07933501  0.05995051    -0.39800
C523        C  0.37080556  0.13125240  0.07084253    -0.12100
C524        C  0.35013603  0.15518254  0.07945046     0.04900
C525        C  0.35601351  0.18891716  0.07590475    -0.07400
C526        C  0.38321443  0.19847128  0.06447614    -0.08200
C527        C  0.40463771  0.17468508  0.05611721    -0.02700
C528        C  0.39787837  0.14068289  0.05913555     0.04100
N529        N  0.41958765  0.11548264  0.05172457     0.66600
H530        H  0.36653808  0.10521251  0.07374800     0.15500
H531        H  0.38775518  0.22466398  0.06225862     0.15200
N532        N  0.33505860  0.21364433  0.08448161     0.74300
O533        O  0.44444362  0.10596923  0.06189342    -0.39100
O534        O  0.40930244  0.09740734  0.03798354    -0.39100
O535        O  0.34230600  0.22442592  0.10119889    -0.39800
O536        O  0.30614454  0.21915151  0.07739714    -0.39800
C537        C  0.12929939  0.32148603  0.06875420    -0.12100
C538        C  0.11628197  0.33927102  0.05274003     0.04900
C539        C  0.13229114  0.36917555  0.04740251    -0.07400
C540        C  0.16033389  0.38037937  0.05813631    -0.08200
C541        C  0.17334577  0.36174706  0.07374884    -0.02700
C542        C  0.15818273  0.33162679  0.07867984     0.04100
N543        N  0.17245750  0.31078300  0.09351272     0.66600
H544        H  0.11702980  0.29933876  0.07361046     0.15500
H545        H  0.17186084  0.40376364  0.05436698     0.15200
N546        N  0.12006395  0.38899313  0.03160440     0.74300
O547        O  0.16309016  0.31370571  0.11089748    -0.39100
O548        O  0.19724623  0.29234493  0.08962514    -0.39100
O549        O  0.10394726  0.41527579  0.03520633    -0.39800
O550        O  0.13272575  0.38518366  0.01500681    -0.39800
C551        C  0.38764230  0.31677811  0.06125753    -0.12100
C552        C  0.40178304  0.33711519  0.04694962     0.04900
C553        C  0.38719998  0.36863282  0.04322737    -0.07400
C554        C  0.36090586  0.38005415  0.05505057    -0.08200
C555        C  0.34855713  0.36006000  0.07006784    -0.02700
C556        C  0.36126431  0.32784528  0.07261526     0.04100
N557        N  0.34798076  0.30632840  0.08710328     0.66600
H558        H  0.39742787  0.29205494  0.06399352     0.15500
H559        H  0.35057527  0.40469725  0.05278526     0.15200
N560        N  0.39890002  0.38944529  0.02790860     0.74300
O561        O  0.32188312  0.28984416  0.08333438    -0.39100
O562        O  0.36527983  0.29950647  0.10208463    -0.39100
O563        O  0.38388436  0.38893888  0.01165584    -0.39800
O564        O  0.41784661  0.41348836  0.03194578    -0.39800
C565        C  0.11953905  0.36741818  0.94311474    -0.12100
C566        C  0.12239443  0.33431143  0.94904224     0.04900
C567        C  0.15103081  0.31577556  0.94406042    -0.07400
C568        C  0.17596025  0.33002762  0.93266201    -0.08200
C569        C  0.17260792  0.36274479  0.92596462    -0.02700
C570        C  0.14412607  0.38163895  0.93133575     0.04100
N571        N  0.13876582  0.41446279  0.92405568     0.66600
H572        H  0.09724676  0.38167144  0.94668467     0.15500
H573        H  0.19754652  0.31521289  0.92849496     0.15200
N574        N  0.15494245  0.28239261  0.95060604     0.74300
O575        O  0.12080927  0.41852804  0.90899018    -0.39100
O576        O  0.14338504  0.43869719  0.93529908    -0.39100
O577        O  0.14949260  0.25892377  0.93892387    -0.39800
O578        O  0.15695325  0.27655277  0.96861581    -0.39800
C579        C  0.39467159  0.36703082  0.94388841    -0.12100
C580        C  0.39747353  0.33232490  0.94516204     0.04900
C581        C  0.37261914  0.31282672  0.93596107    -0.07400
C582        C  0.34658685  0.32789342  0.92527089    -0.08200
C583        C  0.34448085  0.36236337  0.92343105    -0.02700
C584        C  0.36853121  0.38212902  0.93305313     0.04100
N585        N  0.36694760  0.41742328  0.93183401     0.66600
H586        H  0.41329824  0.38252943  0.95092670     0.15500
H587        H  0.32805478  0.31247727  0.91805682     0.15200
N588        N  0.37224724  0.27770931  0.93813036     0.74300
O589        O  0.35158910  0.43336188  0.94480868    -0.39100
O590        O  0.38709842  0.43249590  0.92090958    -0.39100
O591        O  0.35270874  0.26526722  0.95047170    -0.39800
O592        O  0.38315567  0.25985251  0.92451042    -0.39800
C593        C  0.12120055  0.12941522  0.94900990    -0.12100
C594        C  0.12717943  0.16040330  0.95744402     0.04900
C595        C  0.15911685  0.17518255  0.95550850    -0.07400
C596        C  0.18198099  0.16144163  0.94232737    -0.08200
C597        C  0.17511330  0.13154498  0.93275849    -0.02700
C598        C  0.14533896  0.11442667  0.93718671     0.04100
N599        N  0.13950175  0.08173298  0.93008057     0.66600
H600        H  0.09732054  0.11719664  0.95118764     0.15500
H601        H  0.20560206  0.17381561  0.93964470     0.15200
N602        N  0.16946808  0.20244477  0.96759129     0.74300
O603        O  0.12025991  0.07769032  0.91559674    -0.39100
O604        O  0.14595264  0.05738931  0.94109071    -0.39100
O605        O  0.15740278  0.20565526  0.98439885    -0.39800
O606        O  0.19532348  0.21886467  0.96330052    -0.39800
C607        C  0.36968089  0.11547538  0.93477352    -0.12100
C608        C  0.34526963  0.13766848  0.92758891     0.04900
C609        C  0.34670320  0.17123687  0.93286151    -0.07400
C610        C  0.37342441  0.18243852  0.94439126    -0.08200
C611        C  0.39871504  0.16070896  0.95105063    -0.02700
C612        C  0.39622772  0.12669241  0.94661579     0.04100
N613        N  0.42151747  0.10365208  0.95284712     0.66600
H614        H  0.36855339  0.08954948  0.93076474     0.15500
H615        H  0.37500500  0.20839411  0.94788006     0.15200
N616        N  0.32192177  0.19432607  0.92586919     0.74300
O617        O  0.41638117  0.08606658  0.96770575    -0.39100
O618        O  0.44424513  0.09520278  0.94115070    -0.39100
O619        O  0.29427402  0.19715376  0.93458385    -0.39800
O620        O  0.32543677  0.20781215  0.90944706    -0.39800
C621        C  0.39129291  0.39536073  0.19716115    -0.12100
C622        C  0.41488820  0.41935205  0.19177174     0.04900
C623        C  0.41033791  0.43612940  0.17399037    -0.07400
C624        C  0.38163988  0.43034126  0.16253088    -0.08200
C625        C  0.35837006  0.40559771  0.16742939    -0.02700
C626        C  0.36373254  0.38767734  0.18497132     0.04100
N627        N  0.34160335  0.36169635  0.19068560     0.66600
H628        H  0.39392776  0.38294114  0.21109224     0.15500
H629        H  0.37823645  0.44436849  0.14918631     0.15200
N630        N  0.43546993  0.45815407  0.16696735     0.74300
O631        O  0.34944519  0.33212646  0.18677971    -0.39100
O632        O  0.32043739  0.36715093  0.20386958    -0.39100
O633        O  0.45995235  0.44633733  0.15766467    -0.39800
O634        O  0.42920421  0.48875946  0.16580853    -0.39800
C635        C  0.13084818  0.40172363  0.18832969    -0.12100
C636        C  0.12448337  0.43578222  0.19023259     0.04900
C637        C  0.14602617  0.45848654  0.18085575    -0.07400
C638        C  0.17362882  0.44706137  0.17039769    -0.08200
C639        C  0.18034212  0.41321194  0.16874297    -0.02700
C640        C  0.15848903  0.39032120  0.17758905     0.04100
N641        N  0.16379636  0.35549329  0.17552283     0.66600
H642        H  0.11484353  0.38395747  0.19552633     0.15500
H643        H  0.18923780  0.46474689  0.16281880     0.15200
N644        N  0.13883647  0.49319835  0.18045538     0.74300
O645        O  0.18037695  0.33997085  0.18840476    -0.39100
O646        O  0.14615597  0.33952339  0.16346018    -0.39100
O647        O  0.15424876  0.51204216  0.19208267    -0.39800
O648        O  0.12617967  0.50538547  0.16512651    -0.39800
C649        C  0.39711131  0.06776157  0.18036714    -0.12100
C650        C  0.40668360  0.08648232  0.19663587     0.04900
C651        C  0.38785234  0.11496480  0.20146059    -0.07400
C652        C  0.35930275  0.12366205  0.19037746    -0.08200
C653        C  0.34913082  0.10412451  0.17460830    -0.02700
C654        C  0.36836465  0.07613764  0.16948007     0.04100
N655        N  0.35864522  0.05600133  0.15329612     0.66600
H656        H  0.41130191  0.04570803  0.17660316     0.15500
H657        H  0.34517044  0.14582651  0.19397517     0.15200
N658        N  0.39678192  0.13472090  0.21787263     0.74300
O659        O  0.37377916  0.05885813  0.13734861    -0.39100
O660        O  0.33199183  0.03922631  0.15403752    -0.39100
O661        O  0.41451916  0.16016914  0.21537196    -0.39800
O662        O  0.38067740  0.13150006  0.23346978    -0.39800
C663        C  0.13934739  0.11362548  0.20450514    -0.12100
C664        C  0.11321891  0.09398100  0.19701917     0.04900
C665        C  0.11561451  0.08201808  0.17792143    -0.07400
C666        C  0.14422139  0.08865739  0.16690842    -0.08200
C667        C  0.17040730  0.10864326  0.17414735    -0.02700
C668        C  0.16750994  0.12156285  0.19318111     0.04100
N669        N  0.19270645  0.14274094  0.20125230     0.66600
H670        H  0.13842773  0.12191472  0.21946933     0.15500
H671        H  0.14580585  0.07842089  0.15239214     0.15200
N672        N  0.08916036  0.06273241  0.16955869     0.74300
O673        O  0.21367100  0.13097407  0.21336633    -0.39100
O674        O  0.18837142  0.17371698  0.20043363    -0.39100
O675        O  0.06782940  0.07657845  0.15846839    -0.39800
O676        O  0.09041832  0.03151942  0.17046090    -0.39800
C677        C  0.06479056  0.13481416  0.68855054    -0.12100
C678        C  0.08926583  0.11178753  0.69482918     0.04900
C679        C  0.12316577  0.11650604  0.68971521    -0.07400
C680        C  0.13172704  0.14299960  0.67757601    -0.08200
C681        C  0.10694793  0.16498048  0.67070662    -0.02700
C682        C  0.07347273  0.16143541  0.67666730     0.04100
N683        N  0.04788589  0.18371379  0.66977692     0.66600
H684        H  0.03860774  0.13139651  0.69230096     0.15500
H685        H  0.15752818  0.14576658  0.67292727     0.15200
N686        N  0.14864435  0.09317820  0.69528503     0.74300
O687        O  0.03847287  0.18246256  0.65221934    -0.39100
O688        O  0.03988521  0.20846572  0.67994911    -0.39100
O689        O  0.15738274  0.07109688  0.68336717    -0.39800
O690        O  0.16776882  0.09978284  0.70948284    -0.39800
C691        C  0.11865900  0.36106842  0.67007767    -0.12100
C692        C  0.09548134  0.33524410  0.66820995     0.04900
C693        C  0.06515666  0.33638926  0.67862262    -0.07400
C694        C  0.05816429  0.36382807  0.69032337    -0.08200
C695        C  0.08093523  0.39014533  0.69165524    -0.02700
C696        C  0.11144188  0.38864281  0.68153815     0.04100
N697        N  0.13351175  0.41639910  0.68102402     0.66600
H698        H  0.14177059  0.36046881  0.66184685     0.15500
H699        H  0.03423410  0.36530175  0.69770820     0.15200
N700        N  0.04042664  0.31105048  0.67644778     0.74300
O701        O  0.15862208  0.41717675  0.69236853    -0.39100
O702        O  0.13216424  0.43592674  0.66666769    -0.39100
O703        O  0.03506994  0.29137407  0.69035141    -0.39800
O704        O  0.01969078  0.31257584  0.66245406    -0.39800
C705        C  0.44259829  0.13056238  0.68093610    -0.12100
C706        C  0.42038823  0.11348587  0.69317284     0.04900
C707        C  0.38690294  0.12512636  0.69479970    -0.07400
C708        C  0.37623178  0.15283032  0.68391355    -0.08200
C709        C  0.39835334  0.16876647  0.67127542    -0.02700
C710        C  0.43179362  0.15778325  0.66999627     0.04100
N711        N  0.45449629  0.17320438  0.65681717     0.66600
H712        H  0.46845205  0.12234396  0.67945171     0.15500
H713        H  0.35024967  0.16098702  0.68462191     0.15200
N714        N  0.36274734  0.10774591  0.70608883     0.74300
O715        O  0.97009255  0.19992362  0.65889634    -0.39100
O716        O  0.45909826  0.16055762  0.64029004    -0.39100
O717        O  0.35371937  0.11960897  0.72217948    -0.39800
O718        O  0.34470086  0.08610841  0.69795313    -0.39800
C719        C  0.41786761  0.36121550  0.66173183    -0.12100
C720        C  0.39137291  0.34300009  0.66948874     0.04900
C721        C  0.37750284  0.35293681  0.68739466    -0.07400
C722        C  0.39068918  0.38070893  0.69716157    -0.08200
C723        C  0.41717214  0.39919138  0.68918954    -0.02700
C724        C  0.43036018  0.38921789  0.67104303     0.04100
N725        N  0.45537806  0.40798145  0.66120508     0.66600
H726        H  0.42853027  0.35402165  0.64790284     0.15500
H727        H  0.37990556  0.38800364  0.71091726     0.15200
N728        N  0.34946235  0.33597926  0.69549645     0.74300
O729        O  0.48576559  0.39891817  0.66240252    -0.39100
O730        O  0.44636225  0.42739215  0.64768032    -0.39100
O731        O  0.35411413  0.31692774  0.70986678    -0.39800
O732        O  0.32009882  0.34632683  0.69169115    -0.39800
C733        C  0.32120623  0.13092303  0.55748704    -0.12100
C734        C  0.34673624  0.11076587  0.54981574     0.04900
C735        C  0.38060270  0.12045064  0.55248781    -0.07400
C736        C  0.38814620  0.14836404  0.56401865    -0.08200
C737        C  0.36236246  0.16702525  0.57266597    -0.02700
C738        C  0.32869056  0.15873391  0.56871443     0.04100
N739        N  0.30174857  0.17692700  0.57727225     0.66600
H740        H  0.29502164  0.12429652  0.55542733     0.15500
H741        H  0.41417699  0.15464817  0.56691123     0.15200
N742        N  0.40760374  0.10110325  0.54486584     0.74300
O743        O  0.28620352  0.19854461  0.56732709    -0.39100
O744        O  0.28914884  0.16660626  0.59290197    -0.39100
O745        O  0.42317987  0.11158972  0.53020843    -0.39800
O746        O  0.42085745  0.07870186  0.55529889    -0.39800
C747        C  0.36354812  0.38703768  0.55309371    -0.12100
C748        C  0.32937971  0.38777494  0.54783434     0.04900
C749        C  0.30825200  0.36191673  0.55399978    -0.07400
C750        C  0.32099027  0.33693766  0.56610952    -0.08200
C751        C  0.35457372  0.33726730  0.57233944    -0.02700
C752        C  0.37624212  0.36208858  0.56543135     0.04100
N753        N  0.41079067  0.36286799  0.57127584     0.66600
H754        H  0.37999036  0.40684317  0.54851277     0.15500
H755        H  0.30429308  0.31771147  0.57122218     0.15200
N756        N  0.27368172  0.36077980  0.54821811     0.74300
O757        O  0.41944295  0.38044664  0.58559991    -0.39100
O758        O  0.43293936  0.35277494  0.55965019    -0.39100
O759        O  0.26537632  0.34372175  0.53361121    -0.39800
O760        O  0.25145524  0.36913586  0.56022977    -0.39800
C761        C  0.19952209  0.12025349  0.57083471    -0.12100
C762        C  0.18326494  0.11073507  0.55345517     0.04900
C763        C  0.15480550  0.12906968  0.54694803    -0.07400
C764        C  0.14241332  0.15517961  0.55824945    -0.08200
C765        C  0.15839607  0.16381436  0.57569707    -0.02700
C766        C  0.18753933  0.14676801  0.58178875     0.04100
N767        N  0.20527839  0.15654818  0.59902613     0.66600
H768        H  0.22176302  0.10716404  0.57600880     0.15500
H769        H  0.12027068  0.16880261  0.55340751     0.15200
N770        N  0.13866169  0.12223815  0.52877144     0.74300
O771        O  0.20184982  0.14014590  0.61451607    -0.39100
O772        O  0.21956359  0.18437846  0.59961389    -0.39100
O773        O  0.11038313  0.10820998  0.52863861    -0.39800
O774        O  0.14812807  0.13746004  0.51375697    -0.39800
C775        C  0.17902081  0.38621593  0.57028274    -0.12100
C776        C  0.16568271  0.39149613  0.55151909     0.04900
C777        C  0.14169968  0.36896593  0.54409918    -0.07400
C778        C  0.13161426  0.34203156  0.55562078    -0.08200
C779        C  0.14540514  0.33713661  0.57428492    -0.02700
C780        C  0.16964547  0.35921050  0.58145275     0.04100
N781        N  0.18584208  0.35392210  0.59987099     0.66600
H782        H  0.19748954  0.40292625  0.57642706     0.15500
H783        H  0.11307941  0.32485575  0.55000905     0.15200
N784        N  0.12797040  0.37243105  0.52492930     0.74300
O785        O  0.21366473  0.33869962  0.60053402    -0.39100
O786        O  0.17677595  0.37082303  0.61433124    -0.39100
O787        O  0.13774914  0.35300195  0.51176321    -0.39800
O788        O  0.10078511  0.38829647  0.52252700    -0.39800
C789        C  0.07648302  0.13125206  0.31637693    -0.12100
C790        C  0.09951821  0.10926549  0.30772405     0.04900
C791        C  0.13415920  0.11624223  0.30937435    -0.07400
C792        C  0.14475956  0.14485338  0.31939666    -0.05400
C793        C  0.12138161  0.16594404  0.32850500    -0.02700
C794        C  0.08694516  0.15874653  0.32693463     0.04100
N795        N  0.06215715  0.17879764  0.33631311     0.66600
H796        H  0.04970717  0.12737675  0.31483714     0.15500
H797        H  0.17139456  0.15011612  0.32059312     0.15200
N798        N  0.15876077  0.09522690  0.30070397     0.74300
O799        O  0.05305014  0.17129448  0.35327743    -0.39100
O800        O  0.04400995  0.19818013  0.32622744    -0.39100
O801        O  0.17218098  0.10402729  0.28498321    -0.39800
O802        O  0.17265660  0.07286046  0.31088276    -0.39800
C803        C  0.09602111  0.36104952  0.33436566    -0.12100
C804        C  0.12442822  0.34242085  0.32913739     0.04900
C805        C  0.14316797  0.35266524  0.31286645    -0.07400
C806        C  0.13249560  0.38037422  0.30180486    -0.08200
C807        C  0.10356053  0.39847043  0.30686135    -0.02700
C808        C  0.08553136  0.38868984  0.32344955     0.04100
N809        N  0.05639147  0.40669151  0.32944271     0.66600
H810        H  0.08174527  0.35394115  0.34704366     0.15500
H811        H  0.14619747  0.38707148  0.28884838     0.15200
N812        N  0.17309926  0.33539331  0.30747675     0.74300
O813        O  0.02758413  0.39543442  0.32556401    -0.39100
O814        O  0.05943419  0.42882879  0.34224706    -0.39100
O815        O  0.17199756  0.31476585  0.29373532    -0.39800
O816        O  0.20123751  0.34596298  0.31331268    -0.39800
C817        C  0.18364791  0.16749131  0.43844657    -0.12100
C818        C  0.15495507  0.16415179  0.42658073     0.04900
C819        C  0.13540468  0.13510465  0.42822606    -0.07400
C820        C  0.14584228  0.10951975  0.44084403    -0.08200
C821        C  0.17533660  0.11248879  0.45201095    -0.02700
C822        C  0.19372707  0.14216720  0.45118909     0.04100
N823        N  0.22269707  0.14702822  0.46327011     0.66600
H824        H  0.19883438  0.18964095  0.43745907     0.15500
H825        H  0.13165401  0.08668399  0.44127961     0.15200
N826        N  0.10540038  0.13086516  0.41690316     0.74300
O827        O  0.25157909  0.14276852  0.45625170    -0.39100
O828        O  0.21967544  0.16323503  0.47882634    -0.39100
O829        O  0.10590370  0.11194523  0.40232733    -0.39800
O830        O  0.07747044  0.13866665  0.42420162    -0.39800
C831        C  0.18810361  0.33712635  0.43612667    -0.12100
C832        C  0.15638341  0.33540094  0.42723579     0.04900
C833        C  0.13177178  0.35945938  0.43150350    -0.07400
C834        C  0.13990875  0.38619786  0.44362188    -0.08200
C835        C  0.17238833  0.38904901  0.45159206    -0.02700
C836        C  0.19623020  0.36359706  0.44833360     0.04100
N837        N  0.22871587  0.36413601  0.45742104     0.66600
H838        H  0.20693056  0.31832647  0.43311066     0.15500
H839        H  0.12143097  0.40559846  0.44597652     0.15200
N840        N  0.09896310  0.35759123  0.42291700     0.74300
O841        O  0.23252241  0.35080420  0.47391750    -0.39100
O842        O  0.25428001  0.36928845  0.44717377    -0.39100
O843        O  0.07864432  0.33590357  0.42874160    -0.39800
O844        O  0.09240080  0.37365388  0.40756200    -0.39800
C845        C  0.40011492  0.12130003  0.30907609    -0.12100
C846        C  0.42808344  0.10060841  0.31229152     0.04900
C847        C  0.44934628  0.10687301  0.32829777    -0.07400
C848        C  0.44462455  0.13543112  0.33959275    -0.08200
C849        C  0.41683230  0.15668855  0.33638435    -0.02700
C850        C  0.39368064  0.14844051  0.32138030     0.04100
N851        N  0.36319027  0.16687848  0.31868708     0.66600
H852        H  0.38365708  0.11687674  0.29670941     0.15500
H853        H  0.46215660  0.14048308  0.35136763     0.15200
N854        N  0.47468782  0.08318957  0.33377455     0.74300
O855        O  0.36108680  0.18786627  0.30509196    -0.39100
O856        O  0.33654366  0.15614368  0.32619813    -0.39100
O857        O  0.01425538  0.08543070  0.33078801    -0.39800
O858        O  0.46753832  0.06125713  0.34614171    -0.39800
C859        C  0.47073298  0.36382284  0.31562939    -0.12100
C860        C  0.44596174  0.38577699  0.30829830     0.04900
C861        C  0.41218244  0.38075169  0.31367729    -0.07400
C862        C  0.40405115  0.35425438  0.32608804    -0.08200
C863        C  0.42898725  0.33241116  0.33325407    -0.02700
C864        C  0.46264965  0.33756350  0.32801039     0.04100
N865        N  0.48906289  0.31674704  0.33540749     0.66600
H866        H  0.49683082  0.36689868  0.31165262     0.15500
H867        H  0.37808278  0.35070252  0.33022356     0.15200
N868        N  0.38565105  0.40102722  0.30597104     0.74300
O869        O  0.49939562  0.29289268  0.32520529    -0.39100
O870        O  0.50716479  0.32693354  0.34930469    -0.39100
O871        O  0.36807136  0.39028176  0.29199820    -0.39800
O872        O  0.37459683  0.42478707  0.31599329    -0.39800
C873        C  0.37240097  0.16188875  0.44664659    -0.12100
C874        C  0.35553354  0.17033829  0.42931428     0.04900
C875        C  0.32701830  0.15252903  0.42347963    -0.07400
C876        C  0.31712945  0.12513802  0.43415850    -0.08200
C877        C  0.33467560  0.11526170  0.45105870    -0.02700
C878        C  0.36185861  0.13473370  0.45777658     0.04100
N879        N  0.37860375  0.12779948  0.47582404     0.66600
H880        H  0.39411115  0.17602248  0.45130718     0.15500
H881        H  0.29568377  0.11127065  0.42885626     0.15200
N882        N  0.30827679  0.16157551  0.40641579     0.74300
O883        O  0.40729929  0.11425699  0.47573598    -0.39100
O884        O  0.36891217  0.14243522  0.49098336    -0.39100
O885        O  0.31150098  0.14464326  0.39114344    -0.39800
O886        O  0.28340368  0.18094198  0.40795341    -0.39800
C887        C  0.33398624  0.36336675  0.41521058    -0.12100
C888        C  0.35901843  0.34373827  0.42401727     0.04900
C889        C  0.37088796  0.35222800  0.44273476    -0.07400
C890        C  0.35729366  0.37977983  0.45235519    -0.08200
C891        C  0.33224477  0.39958849  0.44353427    -0.02700
C892        C  0.32087521  0.39127941  0.42455688     0.04100
N893        N  0.29749858  0.41178044  0.41401913     0.66600
H894        H  0.32505457  0.35732984  0.40070870     0.15500
H895        H  0.36662110  0.38578721  0.46676818     0.15200
N896        N  0.39756439  0.33393750  0.45187309     0.74300
O897        O  0.30864047  0.43369135  0.40270061    -0.39100
O898        O  0.26733852  0.40264945  0.41214834    -0.39100
O899        O  0.42741595  0.34374250  0.44990001    -0.39800
O900        O  0.39086238  0.31412967  0.46550113    -0.39800
N901        N  0.39478728  0.79790924  0.37769893    -0.36500
N902        N  0.40377077  0.74487536  0.34912665    -0.57000
N903        N  0.38425317  0.69780310  0.37862109    -0.36500
N904        N  0.37852344  0.75065772  0.40797251    -0.57000
C905        C  0.40937984  0.81486827  0.36306291     0.27100
C906        C  0.39598057  0.81743749  0.39370648     0.27100
C907        C  0.39581522  0.67652012  0.36495356     0.27100
C908        C  0.38040772  0.68021651  0.39522361     0.27100
C909        C  0.40775958  0.77125500  0.33716244     0.35700
C910        C  0.40410629  0.71723885  0.33793823     0.35700
C911        C  0.37001817  0.77889312  0.41731938     0.35700
C912        C  0.36342533  0.72571081  0.41760625     0.35700
C913        C  0.42015233  0.84540153  0.36994605    -0.21700
C914        C  0.41162209  0.84701727  0.38922227    -0.21700
C915        C  0.39862950  0.64499693  0.37306176    -0.21700
C916        C  0.38928911  0.64743572  0.39209498    -0.21700
C917        C  0.41074225  0.76029510  0.31816110    -0.22800
C918        C  0.40885814  0.72613376  0.31868585    -0.22800
C919        C  0.35014190  0.77175713  0.43320890    -0.22800
C920        C  0.34603914  0.73798460  0.43342096    -0.22800
C921        C  0.41142068  0.80471106  0.34336323    -0.18100
C922        C  0.37991936  0.81098571  0.41159327    -0.18100
C923        C  0.36587111  0.69191319  0.41260735    -0.18100
C924        C  0.40269362  0.68416312  0.34517784    -0.18100
H925        H  0.43239882  0.86485294  0.36184234     0.14800
H926        H  0.41576120  0.86790915  0.39877392     0.14800
H927        H  0.40591181  0.62214680  0.36604797     0.14800
H928        H  0.38824701  0.62707480  0.40234841     0.14800
H929        H  0.41490531  0.77526277  0.30533715     0.13000
H930        H  0.41128270  0.70976607  0.30634318     0.13000
H931        H  0.33937740  0.78906605  0.44344073     0.13000
H932        H  0.33159529  0.72409938  0.44388148     0.13000
H933        H  0.38070522  0.77650513  0.37613083     0.26300
H934        H  0.37564293  0.72181802  0.37632257     0.26300
N935        N  0.13013684  0.70321904  0.38026918    -0.36500
N936        N  0.13241928  0.75276054  0.34894326    -0.57000
N937        N  0.13631403  0.80370493  0.37857749    -0.36500
N938        N  0.13622484  0.75417473  0.40919656    -0.57000
C939        C  0.13540672  0.68414883  0.36446346     0.27100
C940        C  0.13892621  0.68485846  0.39604050     0.27100
C941        C  0.14195776  0.82158107  0.36226458     0.27100
C942        C  0.14710244  0.82201981  0.39385672     0.27100
C943        C  0.12226731  0.72585426  0.33879900     0.35700
C944        C  0.12489901  0.77964066  0.33783277     0.35700
C945        C  0.13189450  0.72815972  0.42123295     0.35700
C946        C  0.13586107  0.78150164  0.42039934     0.35700
C947        C  0.14736449  0.65325377  0.37020228    -0.21700
C948        C  0.14990157  0.65379042  0.39012809    -0.21700
C949        C  0.15617336  0.85170141  0.36719184    -0.21700
C950        C  0.15973728  0.85186992  0.38710511    -0.21700
C951        C  0.10910818  0.73558961  0.32092292    -0.22800
C952        C  0.11072202  0.76971047  0.32032571    -0.22800
C953        C  0.12830583  0.73897640  0.44020835    -0.22800
C954        C  0.13083734  0.77289403  0.43968198    -0.22800
C955        C  0.12600543  0.69264786  0.34526681    -0.18100
C956        C  0.13606014  0.69487473  0.41565158    -0.18100
C957        C  0.14415356  0.81345020  0.41377395    -0.18100
C958        C  0.13124691  0.81289099  0.34330879    -0.18100
H959        H  0.15324122  0.63233239  0.36100168     0.14800
H960        H  0.15831325  0.63336897  0.39922505     0.14800
H961        H  0.16287097  0.87164398  0.35743990     0.14800
H962        H  0.16976771  0.87206667  0.39566200     0.14800
H963        H  0.09928416  0.71977378  0.30954879     0.13000
H964        H  0.10235578  0.78539881  0.30841462     0.13000
H965        H  0.12557936  0.72391118  0.45313793     0.13000
H966        H  0.13032558  0.78923140  0.45213321     0.13000
H967        H  0.11735701  0.72577892  0.38029813     0.26300
H968        H  0.12206199  0.78226331  0.37931699     0.26300
N969        N  0.32314994  0.96298765  0.47502930    -0.06000
N970        N  0.34388240  0.93843642  0.47039510    -0.58100
N971        N  0.28534326  0.54261565  0.46503743    -0.05700
N972        N  0.28819170  0.56784409  0.45310845    -0.60200
N973        N  0.31011201  0.54228957  0.47785893    -0.05200
N974        N  0.33048325  0.56768677  0.47476559    -0.58100
N975        N  0.29779918  0.96408335  0.46262720    -0.04900
N976        N  0.30069981  0.94075161  0.44939625    -0.60600
C977        C  0.32950823  0.92484402  0.45426837     0.96200
C978        C  0.31627248  0.58346296  0.45919275     0.96000
N979        N  0.18325507  0.54198897  0.47876608    -0.06200
N980        N  0.16451497  0.56914641  0.47761490    -0.58700
N981        N  0.21986692  0.96273016  0.46546333    -0.04300
N982        N  0.21755210  0.93603932  0.45451189    -0.59900
N983        N  0.19667808  0.96252761  0.47900465    -0.06200
N984        N  0.17769269  0.93580950  0.47726696    -0.58900
N985        N  0.20739246  0.54293310  0.46585024    -0.03900
N986        N  0.20594296  0.57077215  0.45584528    -0.60000
Mn987      Mn  0.24640898  0.50469990  0.46380697     1.18400
C988        C  0.17931293  0.58691124  0.46337165     0.98300
C989        C  0.19130966  0.91942072  0.46203055     0.99000
N990        N  0.31158697  0.53803008  0.52398975    -0.06200
N991        N  0.33265474  0.56244913  0.52813680    -0.62500
N992        N  0.30297648  0.96096396  0.53454205    -0.05000
N993        N  0.30451800  0.93346276  0.54486485    -0.63200
N994        N  0.32615183  0.96083135  0.52099541    -0.05700
N995        N  0.34430014  0.93325649  0.52201999    -0.62800
N996        N  0.28750421  0.53685038  0.53694994    -0.04600
N997        N  0.29156337  0.56014714  0.55005483    -0.63500
Mn998      Mn  0.31218073  0.50174636  0.49982497     1.10700
C999        C  0.31969292  0.57598997  0.54451271     0.99500
C1000       C  0.33020549  0.91645866  0.53689748     0.99600
N1001       N  0.19948992  0.96313833  0.52524784    -0.05700
N1002       N  0.17837004  0.93913966  0.53004917    -0.61100
N1003       N  0.20832164  0.53819855  0.53728534    -0.05000
N1004       N  0.20561164  0.56251497  0.54991606    -0.57800
N1005       N  0.18357602  0.53953805  0.52445226    -0.06300
N1006       N  0.16355331  0.56521490  0.52817582    -0.60700
N1007       N  0.22496951  0.96371439  0.53756969    -0.05300
N1008       N  0.22187414  0.94053330  0.55084655    -0.57800
Mn1009     Mn  0.18201786  0.50202237  0.50057715     1.20200
Mn1010     Mn  0.24772780  0.49960480  0.53656346     1.10100
Cl1011     Cl  0.24716879  0.50221535  0.50021694    -0.85800
C1012       C  0.19288018  0.92524529  0.54614513     0.96500
C1013       C  0.17769175  0.57937979  0.54421100     0.96300
N1014       N  0.37037496  0.80174169  0.62098039    -0.36500
N1015       N  0.37695240  0.75614374  0.65368215    -0.57000
N1016       N  0.37510120  0.70177327  0.62544457    -0.36500
N1017       N  0.36487508  0.74776354  0.59354393    -0.57000
C1018       C  0.36514207  0.82209664  0.63627918     0.27100
C1019       C  0.35983832  0.81811689  0.60482767     0.27100
C1020       C  0.37625939  0.68486436  0.64243321     0.27100
C1021       C  0.36530622  0.68030456  0.61139206     0.27100
C1022       C  0.38513331  0.78477460  0.66267400     0.35700
C1023       C  0.38992462  0.73150390  0.66483584     0.35700
C1024       C  0.36621126  0.77289797  0.58060638     0.35700
C1025       C  0.36516778  0.71942689  0.58317417     0.35700
C1026       C  0.35095483  0.85162751  0.62982330    -0.21700
C1027       C  0.34745397  0.84909025  0.60998200    -0.21700
C1028       C  0.36782886  0.65205252  0.63913697    -0.21700
C1029       C  0.36067329  0.64922182  0.61961118    -0.21700
C1030       C  0.40247947  0.77825226  0.67985707    -0.22800
C1031       C  0.40536804  0.74442833  0.68127653    -0.22800
C1032       C  0.36738062  0.76048758  0.56184621    -0.22800
C1033       C  0.36624825  0.72657068  0.56346586    -0.22800
C1034       C  0.37745199  0.81667687  0.65536869    -0.18100
C1035       C  0.36296033  0.80673236  0.58545817    -0.18100
C1036       C  0.36208838  0.68738142  0.59121540    -0.18100
C1037       C  0.38782786  0.69745785  0.66046707    -0.18100
H1038       H  0.34475886  0.87313085  0.63848991     0.14800
H1039       H  0.33759937  0.86821232  0.60039523     0.14800
H1040       H  0.36728548  0.63210258  0.64968061     0.14800
H1041       H  0.35363529  0.62658560  0.61225637     0.14800
H1042       H  0.41254431  0.79596016  0.69013223     0.13000
H1043       H  0.41797297  0.73092406  0.69288719     0.13000
H1044       H  0.36792207  0.77438738  0.54837529     0.13000
H1045       H  0.36600384  0.70922675  0.55149434     0.13000
H1046       H  0.38495808  0.78030037  0.62120341     0.26300
H1047       H  0.38417765  0.72550663  0.62342011     0.26300
N1048       N  0.12639762  0.70242012  0.62369432    -0.36500
N1049       N  0.12388328  0.75046129  0.65494546    -0.57000
N1050       N  0.14062269  0.80209900  0.62748324    -0.36500
N1051       N  0.13953997  0.75406181  0.59545278    -0.57000
C1052       C  0.11423494  0.68336881  0.63816734     0.27100
C1053       C  0.12232280  0.68542857  0.60692514     0.27100
C1054       C  0.13060857  0.82080793  0.64273901     0.27100
C1055       C  0.14255594  0.82245529  0.61188511     0.27100
C1056       C  0.12184444  0.72270857  0.66578735     0.35700
C1057       C  0.12570152  0.77597748  0.66751702     0.35700
C1058       C  0.14479511  0.72734985  0.58399736     0.35700
C1059       C  0.15278409  0.78028862  0.58604336     0.35700
C1060       C  0.10219485  0.65390153  0.63046987    -0.21700
C1061       C  0.10739378  0.65519050  0.61075966    -0.21700
C1062       C  0.12695688  0.85352624  0.63678683    -0.21700
C1063       C  0.13480245  0.85460850  0.61741001    -0.21700
C1064       C  0.12248695  0.73059547  0.68541070    -0.22800
C1065       C  0.12467565  0.76447686  0.68649457    -0.22800
C1066       C  0.16048760  0.73680715  0.56699085    -0.22800
C1067       C  0.16543268  0.77041745  0.56825043    -0.22800
C1068       C  0.11566912  0.69087912  0.65824885    -0.18100
C1069       C  0.13582523  0.69449595  0.58876993    -0.18100
C1070       C  0.15252966  0.81323175  0.59295198    -0.18100
C1071       C  0.12533830  0.80960569  0.66201708    -0.18100
H1072       H  0.09150648  0.63322948  0.63828155     0.14800
H1073       H  0.10173425  0.63569577  0.60047610     0.14800
H1074       H  0.11952513  0.87458566  0.64549592     0.14800
H1075       H  0.13451716  0.87661110  0.60837510     0.14800
H1076       H  0.12036627  0.71381685  0.69763936     0.13000
H1077       H  0.12490964  0.77902649  0.69969218     0.13000
H1078       H  0.16778620  0.72110339  0.55499874     0.13000
H1079       H  0.17725837  0.78578552  0.55739188     0.13000
H1080       H  0.14108851  0.72333187  0.62552192     0.26300
H1081       H  0.14875460  0.77764887  0.62793605     0.26300
N1082       N  0.47884578  0.93432891  0.27043191    -0.06000
N1083       N  0.47657430  0.90774521  0.28129960    -0.58100
N1084       N  0.44930627  0.96529834  0.23082715    -0.05700
N1085       N  0.42291260  0.96272018  0.21940715    -0.60200
N1086       N  0.47272165  0.94345519  0.22633504    -0.05200
N1087       N  0.46114792  0.92455402  0.21178155    -0.58100
N1088       N  0.45517410  0.95605478  0.27467659    -0.04900
N1089       N  0.43527905  0.94337085  0.28828835    -0.60600
C1090       C  0.44960217  0.91321072  0.29243712     0.96200
C1091       C  0.42991430  0.93760800  0.20741940     0.96000
N1092       N  0.46818790  0.56027335  0.23152322    -0.06200
N1093       N  0.45560931  0.58165034  0.21856151    -0.58700
N1094       N  0.45519717  0.53596279  0.27797680    -0.04300
N1095       N  0.43436878  0.54402377  0.29226747    -0.59900
N1096       N  0.47719001  0.55990016  0.27559528    -0.06200
N1097       N  0.47299196  0.58347266  0.28842570    -0.58900
N1098       N  0.44694223  0.53574163  0.23395714    -0.03900
N1099       N  0.42052829  0.53908072  0.22247982    -0.60000
Mn1100     Mn  0.45049850  0.00022364  0.25473103     1.18400
C1101       C  0.42594660  0.56763485  0.21298415     0.98300
C1102       C  0.44662581  0.57347112  0.29886058     0.99000
N1103       N  0.05784096  0.94715182  0.22405886    -0.06200
N1104       N  0.06876199  0.93051100  0.20859491    -0.62500
N1105       N  0.07754839  0.95849209  0.27257706    -0.05000
N1106       N  0.09781262  0.94885598  0.28704975    -0.63200
N1107       N  0.05590670  0.93475398  0.26849995    -0.05700
N1108       N  0.06002196  0.90949612  0.28048788    -0.62800
N1109       N  0.08002968  0.97005354  0.22856883    -0.04600
N1110       N  0.10490008  0.97048685  0.21618130    -0.63500
Mn1111     Mn  0.01626907  0.93808325  0.24579320     1.10700
C1112       C  0.09809360  0.94601369  0.20366735     0.99500
C1113       C  0.08602150  0.91838221  0.29198188     0.99600
N1114       N  0.04999800  0.56690190  0.27414691    -0.05700
N1115       N  0.05430805  0.59222380  0.28580352    -0.61100
N1116       N  0.07657661  0.54645843  0.23206071    -0.05000
N1117       N  0.10117417  0.55343822  0.22018217    -0.57800
N1118       N  0.05135216  0.56757321  0.22993718    -0.06300
N1119       N  0.05917229  0.59021673  0.21666243    -0.60700
N1120       N  0.07501642  0.54549952  0.27594164    -0.05300
N1121       N  0.09775454  0.55706610  0.28852337    -0.57800
Mn1122     Mn  0.01022895  0.56529601  0.25196243     1.20200
Mn1123     Mn  0.07818764  0.00323041  0.25322413     1.10100
Cl1124     Cl  0.01398257  0.00038079  0.25178894    -0.85800
C1125       C  0.08390415  0.58611201  0.29473917     0.96500
C1126       C  0.09019437  0.58040629  0.21055986     0.96300
N1127       N  0.46844532  0.67649043  0.97783068    -0.06000
N1128       N  0.44304626  0.65554508  0.97596082    -0.58100
N1129       N  0.04675501  0.69827444  0.96507437    -0.05700
N1130       N  0.07268765  0.69243526  0.95371295    -0.60200
N1131       N  0.04640298  0.67677384  0.97949117    -0.05200
N1132       N  0.07204911  0.65588243  0.97823960    -0.58100
N1133       N  0.46784588  0.69830862  0.96355875    -0.04900
N1134       N  0.44182900  0.69298105  0.95189651    -0.60600
C1135       C  0.42663796  0.66619763  0.95970057     0.96200
C1136       C  0.08841899  0.66625597  0.96223578     0.96000
N1137       N  0.04735863  0.80182992  0.97280164    -0.06200
N1138       N  0.07288754  0.82156621  0.96909692    -0.58700
N1139       N  0.46887285  0.77631933  0.96012141    -0.04300
N1140       N  0.44254657  0.77925166  0.94836574    -0.59900
N1141       N  0.47035705  0.80171688  0.97208852    -0.06200
N1142       N  0.44530502  0.82257126  0.96855823    -0.58900
N1143       N  0.04743690  0.77617621  0.96100690    -0.03900
N1144       N  0.07333109  0.77776301  0.94917351    -0.60000
Mn1145     Mn  0.00802435  0.73770992  0.96224247     1.18400
C1146       C  0.08895012  0.80610450  0.95444125     0.98300
C1147       C  0.42802012  0.80810774  0.95386832     0.99000
N1148       N  0.04798017  0.68372523  0.02452735    -0.06200
N1149       N  0.07434106  0.66412446  0.02754279    -0.62500
N1150       N  0.47238215  0.70964775  0.03552748    -0.05000
N1151       N  0.44718090  0.70856860  0.04786328    -0.63200
N1152       N  0.47120196  0.68411737  0.02368592    -0.05700
N1153       N  0.44533516  0.66497496  0.02788933    -0.62800
N1154       N  0.04936122  0.70963717  0.03605284    -0.04600
N1155       N  0.07682323  0.70846880  0.04697064    -0.63500
Mn1156     Mn  0.00799537  0.67962165  0.00220688     1.10700
C1157       C  0.09221267  0.68007705  0.04146989     0.99500
C1158       C  0.43052638  0.68058504  0.04301686     0.99600
N1159       N  0.47280625  0.80887795  0.01771584    -0.05700
N1160       N  0.44758373  0.83000615  0.02039938    -0.61100
N1161       N  0.04935950  0.78679496  0.03248633    -0.05000
N1162       N  0.07444486  0.79176419  0.04471713    -0.57800
N1163       N  0.04944433  0.80899193  0.01846176    -0.06300
N1164       N  0.07501687  0.82965937  0.02100197    -0.60700
N1165       N  0.47395760  0.78687240  0.03182347    -0.05300
N1166       N  0.44985235  0.79235682  0.04430889    -0.57800
Mn1167     Mn  0.00931775  0.80724166  0.99549224     1.20200
Mn1168     Mn  0.01062436  0.74881603  0.03505025     1.10100
Cl1169     Cl  0.00887436  0.74337479  0.99870632    -0.85800
C1170       C  0.43346088  0.81916828  0.03712762     0.96500
C1171       C  0.09043055  0.81849997  0.03755673     0.96300
N1172       N  0.30853034  0.88542876  0.87624040    -0.36500
N1173       N  0.25828916  0.86679968  0.90448051    -0.57000
N1174       N  0.20676194  0.87672205  0.87549596    -0.36500
N1175       N  0.25650453  0.89327986  0.84656850    -0.57000
C1176       C  0.32792346  0.87133088  0.89029898     0.27100
C1177       C  0.32649180  0.88455222  0.85963146     0.27100
C1178       C  0.18999338  0.85863667  0.88879037     0.27100
C1179       C  0.18898977  0.87510566  0.85869225     0.27100
C1180       C  0.28538255  0.86820474  0.91642997     0.35700
C1181       C  0.23116548  0.86253264  0.91589448     0.35700
C1182       C  0.28284598  0.90709690  0.83741138     0.35700
C1183       C  0.22844193  0.90482593  0.83755188     0.35700
C1184       C  0.35854697  0.86162813  0.88255276    -0.21700
C1185       C  0.35755818  0.86980613  0.86319617    -0.21700
C1186       C  0.16158653  0.84491714  0.88022228    -0.21700
C1187       C  0.16097942  0.85532278  0.86117003    -0.21700
C1188       C  0.27544235  0.86494939  0.93560490    -0.22800
C1189       C  0.24100022  0.86144509  0.93526689    -0.22800
C1190       C  0.27155681  0.92767569  0.82253532    -0.22800
C1191       C  0.23695022  0.92620760  0.82260205    -0.22800
C1192       C  0.31902836  0.86735878  0.91001001    -0.18100
C1193       C  0.31676463  0.89946594  0.84180687    -0.18100
C1194       C  0.19563392  0.89409145  0.84195346    -0.18100
C1195       C  0.19834518  0.85636069  0.90875621    -0.18100
H1196       H  0.37949147  0.84977037  0.89003059     0.14800
H1197       H  0.37762003  0.86565610  0.85294407     0.14800
H1198       H  0.14283929  0.82961964  0.88709988     0.14800
H1199       H  0.14163911  0.84978229  0.85049574     0.14800
H1200       H  0.29148270  0.86397515  0.94840879     0.13000
H1201       H  0.22519434  0.85740713  0.94776144     0.13000
H1202       H  0.28666308  0.94203649  0.81262725     0.13000
H1203       H  0.22006460  0.93912051  0.81269022     0.13000
H1204       H  0.28587779  0.89796329  0.87830476     0.26300
H1205       H  0.22641707  0.89300961  0.87832181     0.26300
N1206       N  0.20365952  0.60429828  0.87946280    -0.36500
N1207       N  0.25331722  0.61147039  0.90967643    -0.57000
N1208       N  0.30539402  0.60620143  0.88120221    -0.36500
N1209       N  0.25588727  0.60044537  0.85024136    -0.57000
C1210       C  0.18565304  0.61756115  0.89414319     0.27100
C1211       C  0.18734830  0.61206696  0.86269367     0.27100
C1212       C  0.32197677  0.62089706  0.89608206     0.27100
C1213       C  0.32361063  0.61130152  0.86501384     0.27100
C1214       C  0.22603522  0.60592116  0.92068644     0.35700
C1215       C  0.28042447  0.60962012  0.92160328     0.35700
C1216       C  0.22889039  0.59000014  0.83989349     0.35700
C1217       C  0.28347387  0.58857130  0.84121217     0.35700
C1218       C  0.15819979  0.63481037  0.88651546    -0.21700
C1219       C  0.15899315  0.63086709  0.86665775    -0.21700
C1220       C  0.35079248  0.63598764  0.88917723    -0.21700
C1221       C  0.35176131  0.62997349  0.86950112    -0.21700
C1222       C  0.23603179  0.59933607  0.93972564    -0.22800
C1223       C  0.27057620  0.60226330  0.94035342    -0.22800
C1224       C  0.23928111  0.57113069  0.82424274    -0.22800
C1225       C  0.27397149  0.57029034  0.82504309    -0.22800
C1226       C  0.19278279  0.61285524  0.91419563    -0.18100
C1227       C  0.19538377  0.59895363  0.84430571    -0.18100
C1228       C  0.31682613  0.59646983  0.84686212    -0.18100
C1229       C  0.31307256  0.61850129  0.91587127    -0.18100
H1230       H  0.13919502  0.64837653  0.89441864     0.14800
H1231       H  0.14059269  0.64031477  0.85630474     0.14800
H1232       H  0.36958771  0.64926483  0.89750640     0.14800
H1233       H  0.37139429  0.63764448  0.85970458     0.14800
H1234       H  0.22001877  0.59478916  0.95206897     0.13000
H1235       H  0.28648332  0.60022090  0.95317057     0.13000
H1236       H  0.22358875  0.55926609  0.81340214     0.13000
H1237       H  0.29025812  0.55777645  0.81486741     0.13000
H1238       H  0.22353408  0.58743839  0.88092525     0.26300
H1239       H  0.28525123  0.58992544  0.88234543     0.26300
N1240       N  0.07322612  0.96411987  0.72328373    -0.06000
N1241       N  0.09424445  0.93871364  0.72151403    -0.58100
N1242       N  0.04520535  0.53916739  0.70860991    -0.05700
N1243       N  0.04930078  0.56449069  0.69691064    -0.60200
N1244       N  0.06921258  0.53784037  0.72186419    -0.05200
N1245       N  0.09054591  0.56257270  0.71930884    -0.58100
N1246       N  0.04966452  0.96314866  0.70975783    -0.04900
N1247       N  0.05400221  0.93699386  0.69856404    -0.60600
C1248       C  0.08196258  0.92203292  0.70596954     0.96200
C1249       C  0.07752599  0.57887154  0.70362541     0.96000
N1250       N  0.44082603  0.54394095  0.72313082    -0.06200
N1251       N  0.42242282  0.57136445  0.72135820    -0.58700
N1252       N  0.46504373  0.96601481  0.70658571    -0.04300
N1253       N  0.46062588  0.94350565  0.69301697    -0.59900
N1254       N  0.44119355  0.96445181  0.71962954    -0.06200
N1255       N  0.41987350  0.94051044  0.71505970    -0.58900
N1256       N  0.46470319  0.54371484  0.71008506    -0.03900
N1257       N  0.46335117  0.57067997  0.69933581    -0.60000
Mn1258     Mn  0.00950029  0.00123159  0.70834498     1.18400
C1259       C  0.43700150  0.58788981  0.70641171     0.98300
C1260       C  0.43245149  0.92761786  0.69836304     0.99000
N1261       N  0.06932441  0.53333071  0.76812436    -0.06200
N1262       N  0.09509505  0.55143937  0.77385592    -0.62500
N1263       N  0.04744010  0.96259021  0.78175900    -0.05000
N1264       N  0.05645943  0.94118500  0.79546897    -0.63200
N1265       N  0.07084618  0.96378603  0.76839018    -0.05700
N1266       N  0.09553695  0.94295700  0.77253415    -0.62800
N1267       N  0.04601274  0.53293034  0.78160821    -0.04600
N1268       N  0.05593894  0.55046891  0.79681454    -0.63500
Mn1269     Mn  0.07187780  0.00235910  0.74612601     1.10700
C1270       C  0.08653596  0.56218920  0.79175725     0.99500
C1271       C  0.08650259  0.92879971  0.78946342     0.99600
N1272       N  0.44126867  0.96315634  0.76633561    -0.05700
N1273       N  0.41573599  0.94465365  0.77167542    -0.61100
N1274       N  0.46288429  0.53613241  0.78293859    -0.05000
N1275       N  0.45379489  0.55442928  0.79793275    -0.57800
N1276       N  0.43972106  0.53800636  0.76912643    -0.06300
N1277       N  0.41487770  0.55773422  0.77450262    -0.60700
N1278       N  0.46464470  0.96305780  0.78007132    -0.05300
N1279       N  0.45507894  0.94480211  0.79494400    -0.57800
Mn1280     Mn  0.43966261  0.00168765  0.74348062     1.20200
Mn1281     Mn  0.00592749  0.99987776  0.78203800     1.10100
Cl1282     Cl  0.00757341  0.00101075  0.74510247    -0.85800
C1283       C  0.42454201  0.93330398  0.78954984     0.96500
C1284       C  0.42388379  0.56816571  0.79248727     0.96300
N1285       N  0.26121869  0.63402612  0.09658082    -0.36500
N1286       N  0.31167276  0.62233613  0.12557992    -0.57000
N1287       N  0.25938265  0.61744021  0.15550320    -0.36500
N1288       N  0.20891821  0.62673702  0.12561747    -0.57000
C1289       C  0.28854169  0.63190973  0.08516425     0.27100
C1290       C  0.23393403  0.63120009  0.08493745     0.27100
C1291       C  0.28599364  0.60234201  0.16428044     0.27100
C1292       C  0.23113434  0.60726218  0.16462828     0.27100
C1293       C  0.33174605  0.63348528  0.11125779     0.35700
C1294       C  0.33086347  0.62101453  0.14183410     0.35700
C1295       C  0.19103676  0.63930652  0.11048448     0.35700
C1296       C  0.19060153  0.63264070  0.14170506     0.35700
C1297       C  0.27861438  0.62769947  0.06596767    -0.21700
C1298       C  0.24399023  0.62696637  0.06583542    -0.21700
C1299       C  0.27461219  0.58243123  0.17928209    -0.21700
C1300       C  0.23993740  0.58513945  0.17929914    -0.21700
C1301       C  0.36395108  0.63889662  0.11838927    -0.22800
C1302       C  0.36346665  0.63074666  0.13776306    -0.22800
C1303       C  0.16123605  0.65324207  0.11693613    -0.22800
C1304       C  0.16119180  0.64946537  0.13676367    -0.22800
C1305       C  0.32183122  0.63682410  0.09158991    -0.18100
C1306       C  0.20062323  0.63708470  0.09082814    -0.18100
C1307       C  0.19801953  0.61862058  0.16014127    -0.18100
C1308       C  0.32023120  0.60777873  0.15972017    -0.18100
H1309       H  0.29459926  0.62611353  0.05335557     0.14800
H1310       H  0.22802440  0.62504244  0.05305051     0.14800
H1311       H  0.28969795  0.56739047  0.18912864     0.14800
H1312       H  0.22317800  0.57229662  0.18901852     0.14800
H1313       H  0.38568072  0.64713644  0.11039112     0.13000
H1314       H  0.38481117  0.63143192  0.14764415     0.13000
H1315       H  0.14157219  0.66487532  0.10826248     0.13000
H1316       H  0.14129042  0.65728857  0.14637847     0.13000
H1317       H  0.26107371  0.64212304  0.11089776     0.26300
H1318       H  0.26073944  0.63622743  0.14512777     0.26300
N1319       N  0.26375944  0.89684243  0.14544981    -0.36500
N1320       N  0.21197804  0.88689038  0.11585456    -0.57000
N1321       N  0.26341432  0.87742954  0.08646705    -0.36500
N1322       N  0.31532364  0.88376250  0.11699885    -0.57000
C1323       C  0.23579502  0.89572896  0.15665186     0.27100
C1324       C  0.29121436  0.89334850  0.15729032     0.27100
C1325       C  0.23605798  0.86533550  0.07711417     0.27100
C1326       C  0.29070409  0.86465832  0.07758938     0.27100
C1327       C  0.19241892  0.89904547  0.13016030     0.35700
C1328       C  0.19294113  0.88736422  0.09945430     0.35700
C1329       C  0.33505865  0.89492610  0.13168868     0.35700
C1330       C  0.33413021  0.88492236  0.10075513     0.35700
C1331       C  0.24563006  0.89174564  0.17592173    -0.21700
C1332       C  0.28041500  0.89014446  0.17631962    -0.21700
C1333       C  0.24605995  0.84534783  0.06183753    -0.21700
C1334       C  0.28062793  0.84501141  0.06209019    -0.21700
C1335       C  0.16098624  0.90769523  0.12268766    -0.22800
C1336       C  0.16117268  0.89977536  0.10330249    -0.22800
C1337       C  0.36631280  0.90375555  0.12461346    -0.22800
C1338       C  0.36591126  0.89683504  0.10507837    -0.22800
C1339       C  0.20182852  0.90035589  0.15006095    -0.18100
C1340       C  0.32567741  0.89561669  0.15150250    -0.18100
C1341       C  0.32440925  0.87126954  0.08272684    -0.18100
C1342       C  0.20236044  0.87253390  0.08177322    -0.18100
H1343       H  0.22941281  0.89043033  0.18844168     0.14800
H1344       H  0.29601068  0.88743539  0.18922120     0.14800
H1345       H  0.23013072  0.83231029  0.05159133     0.14800
H1346       H  0.29650217  0.83168294  0.05204349     0.14800
H1347       H  0.13979301  0.91793050  0.13044056     0.13000
H1348       H  0.14020011  0.90231419  0.09323369     0.13000
H1349       H  0.38744387  0.91365721  0.13269981     0.13000
H1350       H  0.38671300  0.89985903  0.09520975     0.13000
H1351       H  0.26413927  0.90362938  0.13088855     0.26300
H1352       H  0.26357787  0.89534793  0.09731910     0.26300
C1353       C  0.14014444  0.57236595  0.83753333    -0.12100
C1354       C  0.16693921  0.59146570  0.83060160     0.04900
C1355       C  0.16553610  0.60306376  0.81121340    -0.07400
C1356       C  0.13876573  0.59368194  0.79897686    -0.08200
C1357       C  0.11236005  0.57397635  0.80584387    -0.02700
C1358       C  0.11280192  0.56408879  0.82556954     0.04100
N1359       N  0.08654554  0.54446909  0.83359938     0.66600
H1360       H  0.14061833  0.56342682  0.85241504     0.15500
H1361       H  0.13844922  0.60215284  0.78400650     0.15200
N1362       N  0.19014811  0.62545911  0.80394412     0.74300
O1363       O  0.08767156  0.51338105  0.83181256    -0.39100
O1364       O  0.06715498  0.55714069  0.84599095    -0.39100
O1365       O  0.21039553  0.61565195  0.79113925    -0.39800
O1366       O  0.18579866  0.65617993  0.80632886    -0.39800
C1367       C  0.40112405  0.56845393  0.82613733    -0.12100
C1368       C  0.39841183  0.57938423  0.80677322     0.04900
C1369       C  0.36942352  0.59749130  0.80101454    -0.07400
C1370       C  0.34359004  0.60332075  0.81431434    -0.08200
C1371       C  0.34535611  0.59051460  0.83327801    -0.02700
C1372       C  0.37470736  0.57304961  0.83920142     0.04100
N1373       N  0.37725783  0.55795162  0.85800577     0.66600
H1374       H  0.42291651  0.55421375  0.83088555     0.15500
H1375       H  0.32175773  0.61764777  0.80970748     0.15200
N1376       N  0.36583048  0.61039720  0.78175067     0.74300
O1377       O  0.36518724  0.52943099  0.86052395    -0.39100
O1378       O  0.39802444  0.56913650  0.87030089    -0.39100
O1379       O  0.34470873  0.59751741  0.77027344    -0.39800
O1380       O  0.37713744  0.63882979  0.77800831    -0.39800
C1381       C  0.16752724  0.89085822  0.80933491    -0.12100
C1382       C  0.16706681  0.90218351  0.82857357     0.04900
C1383       C  0.13868698  0.91992384  0.83515496    -0.07400
C1384       C  0.11165212  0.92627979  0.82253905    -0.08200
C1385       C  0.11258287  0.91613951  0.80309387    -0.02700
C1386       C  0.14078531  0.89796362  0.79653136     0.04100
N1387       N  0.14270074  0.88653432  0.77693028     0.66600
H1388       H  0.18888528  0.87665598  0.80420072     0.15500
H1389       H  0.09059676  0.94076598  0.82780083     0.15200
N1390       N  0.13726908  0.93252193  0.85449862     0.74300
O1391       O  0.15897964  0.90318176  0.76469134    -0.39100
O1392       O  0.13562093  0.85676691  0.77320267    -0.39100
O1393       O  0.14846341  0.96111879  0.85795776    -0.39800
O1394       O  0.11725416  0.91946049  0.86633029    -0.39800
C1395       C  0.37062799  0.92787399  0.83471462    -0.12100
C1396       C  0.34387221  0.90836537  0.82792750     0.04900
C1397       C  0.34472088  0.89622641  0.80870468    -0.07400
C1398       C  0.37172544  0.90414721  0.79670661    -0.08200
C1399       C  0.39860431  0.92328406  0.80357007    -0.02700
C1400       C  0.39816696  0.93483417  0.82296188     0.04100
N1401       N  0.42471995  0.95453449  0.83085751     0.66600
H1402       H  0.37031263  0.93744102  0.84942948     0.15500
H1403       H  0.37178075  0.89506001  0.78188793     0.15200
N1404       N  0.31889993  0.87523030  0.80121196     0.74300
O1405       O  0.42272670  0.98567227  0.82959882    -0.39100
O1406       O  0.44503935  0.94169587  0.84296470    -0.39100
O1407       O  0.29897985  0.88644508  0.78835499    -0.39800
O1408       O  0.32200111  0.84426990  0.80321693    -0.39800
C1409       C  0.17545572  0.67777122  0.06813445    -0.12100
C1410       C  0.17538149  0.64570886  0.07574815     0.04900
C1411       C  0.15057874  0.62314246  0.06974811    -0.07400
C1412       C  0.12422902  0.63398536  0.05751761    -0.08200
C1413       C  0.12293461  0.66705136  0.05103688    -0.02700
C1414       C  0.14981474  0.68838846  0.05559865     0.04100
N1415       N  0.15182724  0.72076651  0.04735425     0.66600
H1416       H  0.19528544  0.69480175  0.07221710     0.15500
H1417       H  0.10417968  0.61703871  0.05374009     0.15200
N1418       N  0.15212770  0.58935090  0.07598107     0.74300
O1419       O  0.14891645  0.74547766  0.05836959    -0.39100
O1420       O  0.16619023  0.72429779  0.03121054    -0.39100
O1421       O  0.13985469  0.58123844  0.09214159    -0.39800
O1422       O  0.17139676  0.56937667  0.06734897    -0.39800
C1423       C  0.36690641  0.62434609  0.06762706    -0.12100
C1424       C  0.34714375  0.64772903  0.07730695     0.04900
C1425       C  0.35283611  0.68168723  0.07434207    -0.07400
C1426       C  0.37973064  0.69190186  0.06283860    -0.08200
C1427       C  0.40059363  0.66856462  0.05361582    -0.02700
C1428       C  0.39319552  0.63445470  0.05557511     0.04100
N1429       N  0.41306039  0.60963499  0.04629617     0.66600
H1430       H  0.36232704  0.59814641  0.06977064     0.15500
H1431       H  0.38441023  0.71819143  0.06118854     0.15200
N1432       N  0.33159144  0.70590826  0.08321214     0.74300
O1433       O  0.43686290  0.59600860  0.05566563    -0.39100
O1434       O  0.40170743  0.59578587  0.03119015    -0.39100
O1435       O  0.33742763  0.71477921  0.10048971    -0.39800
O1436       O  0.30362398  0.71306876  0.07537424    -0.39800
C1437       C  0.13165599  0.81756948  0.06487713    -0.12100
C1438       C  0.11992691  0.83346385  0.04782208     0.04900
C1439       C  0.13654257  0.86253345  0.04161017    -0.07400
C1440       C  0.16381459  0.87497277  0.05254392    -0.08200
C1441       C  0.17516240  0.85855951  0.06939205    -0.02700
C1442       C  0.15952720  0.82916228  0.07519929     0.04100
N1443       N  0.17203690  0.81073976  0.09157784     0.66600
H1444       H  0.11914238  0.79579990  0.07038047     0.15500
H1445       H  0.17583980  0.89772729  0.04805038     0.15200
N1446       N  0.12544495  0.88048126  0.02480203     0.74300
O1447       O  0.15862316  0.81433939  0.10798681    -0.39100
O1448       O  0.19913645  0.79446602  0.09022263    -0.39100
O1449       O  0.10489785  0.90415741  0.02682173    -0.39800
O1450       O  0.14226337  0.87852406  0.00938248    -0.39800
C1451       C  0.38943091  0.81391908  0.06168560    -0.12100
C1452       C  0.40383606  0.83340449  0.04703911     0.04900
C1453       C  0.39058336  0.86549052  0.04340999    -0.07400
C1454       C  0.36438035  0.87770137  0.05502412    -0.08200
C1455       C  0.35120465  0.85825545  0.07003806    -0.02700
C1456       C  0.36351625  0.82599638  0.07309065     0.04100
N1457       N  0.34977861  0.80509061  0.08776696     0.66600
H1458       H  0.39845173  0.78895600  0.06454150     0.15500
H1459       H  0.35458317  0.90248425  0.05250797     0.15200
N1460       N  0.40374130  0.88622477  0.02847854     0.74300
O1461       O  0.32562589  0.78625718  0.08347104    -0.39100
O1462       O  0.36612070  0.80018801  0.10334226    -0.39100
O1463       O  0.38862067  0.88782890  0.01227823    -0.39800
O1464       O  0.42453407  0.90850344  0.03296314    -0.39800
C1465       C  0.11729795  0.85238484  0.93759579    -0.12100
C1466       C  0.11830582  0.81971677  0.94436365     0.04900
C1467       C  0.14682563  0.79996104  0.94080397    -0.07400
C1468       C  0.17329479  0.81245137  0.92971078    -0.08200
C1469       C  0.17182084  0.84487239  0.92229652    -0.02700
C1470       C  0.14369816  0.86504820  0.92657496     0.04100
N1471       N  0.14114452  0.89821476  0.91945538     0.66600
H1472       H  0.09547907  0.86784249  0.94037736     0.15500
H1473       H  0.19490317  0.79681711  0.92675161     0.15200
N1474       N  0.14989825  0.76795358  0.94947532     0.74300
O1475       O  0.12244127  0.90404710  0.90492295    -0.39100
O1476       O  0.14891579  0.92177036  0.93061762    -0.39100
O1477       O  0.14238317  0.74261976  0.93967538    -0.39800
O1478       O  0.15263547  0.76576458  0.96773095    -0.39800
C1479       C  0.39824769  0.85809439  0.94111501    -0.12100
C1480       C  0.39895453  0.82359060  0.94383133     0.04900
C1481       C  0.37214823  0.80444104  0.93656343    -0.07400
C1482       C  0.34545436  0.81974385  0.92668941    -0.08200
C1483       C  0.34522626  0.85395204  0.92340331    -0.02700
C1484       C  0.37191898  0.87334785  0.93065952     0.04100
N1485       N  0.37321873  0.90819308  0.92701817     0.66600
H1486       H  0.41882932  0.87312138  0.94648334     0.15500
H1487       H  0.32522768  0.80463377  0.92093491     0.15200
N1488       N  0.37101991  0.76950716  0.93957028     0.74300
O1489       O  0.36548576  0.92804261  0.94041636    -0.39100
O1490       O  0.38979874  0.91869395  0.91274033    -0.39100
O1491       O  0.35360958  0.75843539  0.95334311    -0.39800
O1492       O  0.37912832  0.75042209  0.92586179    -0.39800
C1493       C  0.10787199  0.62362961  0.93904598    -0.12100
C1494       C  0.11580477  0.64778115  0.95290099     0.04900
C1495       C  0.14955616  0.65686077  0.95577263    -0.07400
C1496       C  0.17406356  0.64527365  0.94303793    -0.08200
C1497       C  0.16636391  0.62171917  0.92869222    -0.02700
C1498       C  0.13304043  0.60950957  0.92749332     0.04100
N1499       N  0.12436014  0.58288922  0.91473349     0.66600
H1500       H  0.08200400  0.61584560  0.93712379     0.15500
H1501       H  0.19935917  0.65486062  0.94443308     0.15200
N1502       N  0.15966507  0.67661852  0.97199066     0.74300
O1503       O  0.10488871  0.58836836  0.90045864    -0.39100
O1504       O  0.12841896  0.55347879  0.92062446    -0.39100
O1505       O  0.16190095  0.66298301  0.98849199    -0.39800
O1506       O  0.17597858  0.70278710  0.96900283    -0.39800
C1507       C  0.36464278  0.60682253  0.93586071    -0.12100
C1508       C  0.33843544  0.62863973  0.93069564     0.04900
C1509       C  0.33959475  0.66166253  0.93713835    -0.07400
C1510       C  0.36806684  0.67304587  0.94723515    -0.08200
C1511       C  0.39519587  0.65177142  0.95160427    -0.02700
C1512       C  0.39268324  0.61798140  0.94653347     0.04100
N1513       N  0.41935718  0.59519827  0.95083742     0.66600
H1514       H  0.36398185  0.58138337  0.93086415     0.15500
H1515       H  0.36938079  0.69874311  0.95142806     0.15200
N1516       N  0.31266901  0.68416277  0.93265157     0.74300
O1517       O  0.41693009  0.57636974  0.96542537    -0.39100
O1518       O  0.44029433  0.58818545  0.93778746    -0.39100
O1519       O  0.28733976  0.68525542  0.94354784    -0.39800
O1520       O  0.31133255  0.69807946  0.91620756    -0.39800
C1521       C  0.40739040  0.89560987  0.18290224    -0.12100
C1522       C  0.40371234  0.92560067  0.19306022     0.04900
C1523       C  0.37350710  0.94422395  0.18973639    -0.07400
C1524       C  0.34890809  0.93323295  0.17665710    -0.08200
C1525       C  0.35239616  0.90357582  0.16653442    -0.02700
C1526       C  0.38213441  0.88443986  0.16979919     0.04100
N1527       N  0.38698038  0.85343378  0.16020449     0.66600
H1528       H  0.42977531  0.88060848  0.18522114     0.15500
H1529       H  0.32678602  0.94859018  0.17414132     0.15200
N1530       N  0.36717545  0.97514447  0.19911189     0.74300
O1531       O  0.40689572  0.85183193  0.14606186    -0.39100
O1532       O  0.37927706  0.82708682  0.16896664    -0.39100
O1533       O  0.36928077  0.00144246  0.18929278    -0.39800
O1534       O  0.35039862  0.97544720  0.21458814    -0.39800
C1535       C  0.12091769  0.90347388  0.18044180    -0.12100
C1536       C  0.12390435  0.93453565  0.18938589     0.04900
C1537       C  0.15304612  0.95373352  0.18530660    -0.07400
C1538       C  0.17802024  0.94139717  0.17302892    -0.08200
C1539       C  0.17532821  0.91024410  0.16440113    -0.02700
C1540       C  0.14618813  0.89121099  0.16809762     0.04100
N1541       N  0.14194193  0.85918691  0.15968021     0.66600
H1542       H  0.09913561  0.88827803  0.18329087     0.15500
H1543       H  0.19969533  0.95666765  0.16996238     0.15200
N1544       N  0.15802337  0.98608710  0.19325317     0.74300
O1545       O  0.15123753  0.83403014  0.16930038    -0.39100
O1546       O  0.12090695  0.85565734  0.14598732    -0.39100
O1547       O  0.17547725  0.98895556  0.20857703    -0.39800
O1548       O  0.15474225  0.01090865  0.18219110    -0.39800
C1549       C  0.38854929  0.55744600  0.18485781    -0.12100
C1550       C  0.40144443  0.58023275  0.19839041     0.04900
C1551       C  0.38665197  0.61202030  0.19951478    -0.07400
C1552       C  0.35945750  0.62033107  0.18721280    -0.08200
C1553       C  0.34687274  0.59742837  0.17372358    -0.02700
C1554       C  0.36195726  0.56596457  0.17232840     0.04100
N1555       N  0.35061301  0.54264067  0.15811924     0.66600
H1556       H  0.39889679  0.53264923  0.18427311     0.15500
H1557       H  0.34811966  0.64476394  0.18814762     0.15200
N1558       N  0.39724839  0.63526347  0.21388681     0.74300
O1559       O  0.36268146  0.54326010  0.14122451    -0.39100
O1560       O  0.32546962  0.52470785  0.16157043    -0.39100
O1561       O  0.41562405  0.65914301  0.20890668    -0.39800
O1562       O  0.38145549  0.63693187  0.22968015    -0.39800
C1563       C  0.14212308  0.61249089  0.20536282    -0.12100
C1564       C  0.11291678  0.59822144  0.19744088     0.04900
C1565       C  0.11130308  0.59224290  0.17739315    -0.07400
C1566       C  0.13963062  0.59760441  0.16591374    -0.08200
C1567       C  0.16912900  0.61203082  0.17362425    -0.02700
C1568       C  0.16961139  0.62061717  0.19359124     0.04100
N1569       N  0.19720844  0.63815925  0.20210298     0.66600
H1570       H  0.14380456  0.61682661  0.22088977     0.15500
H1571       H  0.13830804  0.59081180  0.15069861     0.15200
N1572       N  0.08080161  0.58121301  0.16843607     0.74300
O1573       O  0.21653132  0.62333120  0.21397222    -0.39100
O1574       O  0.19632001  0.66942226  0.20217523    -0.39100
O1575       O  0.06128733  0.60219852  0.16057799    -0.39800
O1576       O  0.07619074  0.55078305  0.16539108    -0.39800
C1577       C  0.06466126  0.63288317  0.68888384    -0.12100
C1578       C  0.08934393  0.61027205  0.69540335     0.04900
C1579       C  0.12339831  0.61598177  0.69105505    -0.07400
C1580       C  0.13189684  0.64305375  0.67933599    -0.08200
C1581       C  0.10686016  0.66446108  0.67211576    -0.02700
C1582       C  0.07323470  0.65987522  0.67737327     0.04100
N1583       N  0.04742064  0.68138754  0.67004364     0.66600
H1584       H  0.03835713  0.62882421  0.69209887     0.15500
H1585       H  0.15788524  0.64674957  0.67529370     0.15200
N1586       N  0.14918807  0.59324425  0.69699264     0.74300
O1587       O  0.03531048  0.67637711  0.65329488    -0.39100
O1588       O  0.04192557  0.70866568  0.67839179    -0.39100
O1589       O  0.15989895  0.57221306  0.68496384    -0.39800
O1590       O  0.16671782  0.59972793  0.71187872    -0.39800
C1591       C  0.13930799  0.85539267  0.68515246    -0.12100
C1592       C  0.11517401  0.83456528  0.67669495     0.04900
C1593       C  0.08093193  0.83969056  0.68077188    -0.07400
C1594       C  0.07126633  0.86673479  0.69211097    -0.08200
C1595       C  0.09484282  0.88982400  0.69873487    -0.02700
C1596       C  0.12941022  0.88295569  0.69620829     0.04100
N1597       N  0.15464862  0.90454919  0.70372358     0.66600
H1598       H  0.16576312  0.85118006  0.68233736     0.15500
H1599       H  0.04501264  0.87063067  0.69520339     0.15200
N1600       N  0.05558600  0.81931714  0.67211884     0.74300
O1601       O  0.16811415  0.89793124  0.71997737    -0.39100
O1602       O  0.16926579  0.92413644  0.69229702    -0.39100
O1603       O  0.03839169  0.80034985  0.68265639    -0.39800
O1604       O  0.04669383  0.82433072  0.65468358    -0.39800
C1605       C  0.44581880  0.63396411  0.68312702    -0.12100
C1606       C  0.42521333  0.61940953  0.69731750     0.04900
C1607       C  0.39370212  0.63430141  0.70125676    -0.07400
C1608       C  0.38196339  0.66065616  0.68960078    -0.08200
C1609       C  0.40181824  0.67321987  0.67462667    -0.02700
C1610       C  0.43453071  0.66094158  0.67208774     0.04100
N1611       N  0.45630095  0.67575811  0.65816729     0.66600
H1612       H  0.47070762  0.62410245  0.68031225     0.15500
H1613       H  0.35707157  0.67088144  0.69195904     0.15200
N1614       N  0.37328860  0.62312227  0.71687381     0.74300
O1615       O  0.97236612  0.70852596  0.66555924    -0.39100
O1616       O  0.45719483  0.66448369  0.64108865    -0.39100
O1617       O  0.37491227  0.63804569  0.73294985    -0.39800
O1618       O  0.34832094  0.60493233  0.71324535    -0.39800
C1619       C  0.41642924  0.86351622  0.65886373    -0.12100
C1620       C  0.38917306  0.84615499  0.66639997     0.04900
C1621       C  0.37510799  0.85641468  0.68414544    -0.07400
C1622       C  0.38933864  0.88311596  0.69432109    -0.08200
C1623       C  0.41727014  0.90013108  0.68696581    -0.02700
C1624       C  0.43035244  0.89033426  0.66873178     0.04100
N1625       N  0.45754200  0.90734958  0.65973928     0.66600
H1626       H  0.42728187  0.85591838  0.64515974     0.15500
H1627       H  0.37847852  0.89048358  0.70804248     0.15200
N1628       N  0.34614645  0.84044516  0.69182400     0.74300
O1629       O  0.48723365  0.89706593  0.66256971    -0.39100
O1630       O  0.45139802  0.92615622  0.64542917    -0.39100
O1631       O  0.34946567  0.82126944  0.70624687    -0.39800
O1632       O  0.31730684  0.85157183  0.68744419    -0.39800
C1633       C  0.30830208  0.62362729  0.56575484    -0.12100
C1634       C  0.33188126  0.60592551  0.55474757     0.04900
C1635       C  0.36579592  0.61630098  0.55495661    -0.07400
C1636       C  0.37548889  0.64316172  0.56672043    -0.08200
C1637       C  0.35172240  0.66008669  0.57801461    -0.02700
C1638       C  0.31786413  0.65045953  0.57716382     0.04100
N1639       N  0.29282375  0.66776794  0.58793128     0.66600
H1640       H  0.28202541  0.61658947  0.56560378     0.15500
H1641       H  0.40164189  0.65054044  0.56727648     0.15200
N1642       N  0.39087670  0.59910948  0.54412421     0.74300
O1643       O  0.27819549  0.69248533  0.58031025    -0.39100
O1644       O  0.28072055  0.65458353  0.60295351    -0.39100
O1645       O  0.40118359  0.61155053  0.52844001    -0.39800
O1646       O  0.40801563  0.57656164  0.55233440    -0.39800
C1647       C  0.37368517  0.88344022  0.55423142    -0.12100
C1648       C  0.34227891  0.88478390  0.54487670     0.04900
C1649       C  0.32024321  0.85774910  0.54637343    -0.07400
C1650       C  0.32815346  0.83148895  0.55890647    -0.08200
C1651       C  0.35834452  0.83139382  0.56958640    -0.02700
C1652       C  0.38200473  0.85674679  0.56645763     0.04100
N1653       N  0.41400418  0.85622857  0.57610513     0.66600
H1654       H  0.39091909  0.90402741  0.55297798     0.15500
H1655       H  0.31015002  0.81172263  0.56086587     0.15200
N1656       N  0.28981458  0.85667074  0.53517835     0.74300
O1657       O  0.41816743  0.87276693  0.59147478    -0.39100
O1658       O  0.43939777  0.84565916  0.56711122    -0.39100
O1659       O  0.28930753  0.84081491  0.51939441    -0.39800
O1660       O  0.26243249  0.86521432  0.54281806    -0.39800
C1661       C  0.18610503  0.62195806  0.56986340    -0.12100
C1662       C  0.16599114  0.61004664  0.55442077     0.04900
C1663       C  0.13585093  0.62748989  0.54973463    -0.07400
C1664       C  0.12649917  0.65564190  0.56057083    -0.08200
C1665       C  0.14682104  0.66694604  0.57591694    -0.02700
C1666       C  0.17689980  0.65006445  0.58041578     0.04100
N1667       N  0.19792169  0.66098766  0.59611826     0.66600
H1668       H  0.20935310  0.60944392  0.57388357     0.15500
H1669       H  0.10306294  0.66837759  0.55721690     0.15200
N1670       N  0.11411182  0.61687193  0.53435665     0.74300
O1671       O  0.19687176  0.64615638  0.61227183    -0.39100
O1672       O  0.21191039  0.68891394  0.59511411    -0.39100
O1673       O  0.08699396  0.60251643  0.53851435    -0.39800
O1674       O  0.11731250  0.62950230  0.51768033    -0.39800
C1675       C  0.20436363  0.88052873  0.56993138    -0.12100
C1676       C  0.18115102  0.89577742  0.55711192     0.04900
C1677       C  0.14818178  0.88297244  0.55587242    -0.07400
C1678       C  0.13954378  0.85512878  0.56705941    -0.08200
C1679       C  0.16312143  0.84013355  0.57966715    -0.02700
C1680       C  0.19579214  0.85294208  0.58097661     0.04100
N1681       N  0.22046801  0.83852427  0.59373495     0.66600
H1682       H  0.22958952  0.89015364  0.57161972     0.15500
H1683       H  0.11399603  0.84593747  0.56649407     0.15200
N1684       N  0.12249875  0.89934829  0.54473917     0.74300
O1685       O  0.24075545  0.81726429  0.58714554    -0.39100
O1686       O  0.22712312  0.85252632  0.60968606    -0.39100
O1687       O  0.11204062  0.88625851  0.52919637    -0.39800
O1688       O  0.10475819  0.92131803  0.55279701    -0.39800
C1689       C  0.07435725  0.62646999  0.32068008    -0.12100
C1690       C  0.09781686  0.61022802  0.30888718     0.04900
C1691       C  0.13133731  0.62164867  0.30889256    -0.07400
C1692       C  0.14032484  0.64901626  0.32052499    -0.05400
C1693       C  0.11635204  0.66494324  0.33221587    -0.02700
C1694       C  0.08330095  0.65295611  0.33249129     0.04100
N1695       N  0.05830106  0.66763333  0.34460034     0.66600
H1696       H  0.04833537  0.61927233  0.32033635     0.15500
H1697       H  0.16595844  0.65797124  0.32037756     0.15200
N1698       N  0.15573827  0.60765452  0.29618238     0.74300
O1699       O  0.05245759  0.65479884  0.36096450    -0.39100
O1700       O  0.03694259  0.68728075  0.33714992    -0.39100
O1701       O  0.16227436  0.62237412  0.28046852    -0.39800
O1702       O  0.17604934  0.58607544  0.30268610    -0.39800
C1703       C  0.09100695  0.85712884  0.33357124    -0.12100
C1704       C  0.12143380  0.84068854  0.32997518     0.04900
C1705       C  0.14218155  0.85243985  0.31493186    -0.07400
C1706       C  0.13147879  0.87948034  0.30333549    -0.08200
C1707       C  0.10051607  0.89534239  0.30671439    -0.02700
C1708       C  0.08055465  0.88419945  0.32222113     0.04100
N1709       N  0.04979078  0.90063506  0.32691503     0.66600
H1710       H  0.07528434  0.84894753  0.34542441     0.15500
H1711       H  0.14685196  0.88737457  0.29127660     0.15200
N1712       N  0.17410301  0.83737034  0.31133075     0.74300
O1713       O  0.02226600  0.88618441  0.32375344    -0.39100
O1714       O  0.05051861  0.92486039  0.33846471    -0.39100
O1715       O  0.17661207  0.81588538  0.29812273    -0.39800
O1716       O  0.20038610  0.85061059  0.31809760    -0.39800
C1717       C  0.17691621  0.67007162  0.43873853    -0.12100
C1718       C  0.14425755  0.67019804  0.43097540     0.04900
C1719       C  0.12155100  0.64526391  0.43645326    -0.07400
C1720       C  0.13259745  0.61929456  0.44852646    -0.08200
C1721       C  0.16610292  0.61786811  0.45499013    -0.02700
C1722       C  0.18794349  0.64419798  0.45071655     0.04100
N1723       N  0.22161486  0.64467199  0.45812468     0.66600
H1724       H  0.19435564  0.68945853  0.43479059     0.15500
H1725       H  0.11560001  0.59918891  0.45180896     0.15200
N1726       N  0.08771749  0.64535122  0.42929987     0.74300
O1727       O  0.24544137  0.63699759  0.44703087    -0.39100
O1728       O  0.22792370  0.66044325  0.47353635    -0.39100
O1729       O  0.08042890  0.62877773  0.41432733    -0.39800
O1730       O  0.06444086  0.65536089  0.44019542    -0.39800
C1731       C  0.18648923  0.83693821  0.43644682    -0.12100
C1732       C  0.15401048  0.83844562  0.42847645     0.04900
C1733       C  0.13214812  0.86434597  0.43379245    -0.07400
C1734       C  0.14393908  0.88987800  0.44583975    -0.08200
C1735       C  0.17726253  0.88946612  0.45284785    -0.02700
C1736       C  0.19813973  0.86199153  0.44872587     0.04100
N1737       N  0.23077299  0.85857720  0.45744092     0.66600
H1738       H  0.20302104  0.81642198  0.43286265     0.15500
H1739       H  0.12754594  0.91066367  0.44906155     0.15200
N1740       N  0.09817472  0.86502186  0.42681616     0.74300
O1741       O  0.23352575  0.84388618  0.47360527    -0.39100
O1742       O  0.25649785  0.86167511  0.44702696    -0.39100
O1743       O  0.07653102  0.84698689  0.43487504    -0.39800
O1744       O  0.09130478  0.87855265  0.41068847    -0.39800
C1745       C  0.40067950  0.61244996  0.30848597    -0.12100
C1746       C  0.43128943  0.59651833  0.31288726     0.04900
C1747       C  0.45218149  0.60980560  0.32749642    -0.07400
C1748       C  0.44361807  0.63964496  0.33654682    -0.08200
C1749       C  0.41285519  0.65567887  0.33243769    -0.02700
C1750       C  0.39095159  0.64140589  0.31846427     0.04100
N1751       N  0.35876678  0.65578449  0.31430404     0.66600
H1752       H  0.38481982  0.60305697  0.29686701     0.15500
H1753       H  0.46027593  0.64951188  0.34765344     0.15200
N1754       N  0.48220894  0.59272044  0.33338165     0.74300
O1755       O  0.35486228  0.67299831  0.29909480    -0.39100
O1756       O  0.33320964  0.64422566  0.32260117    -0.39100
O1757       O  0.00523074  0.58006476  0.32622861    -0.39800
O1758       O  0.48011456  0.56633341  0.34318127    -0.39800
C1759       C  0.46203411  0.86267572  0.31168403    -0.12100
C1760       C  0.43803535  0.88684797  0.30605033     0.04900
C1761       C  0.40452123  0.88284812  0.31216203    -0.07400
C1762       C  0.39588249  0.85513152  0.32358795    -0.08200
C1763       C  0.42008241  0.83101212  0.32893338    -0.02700
C1764       C  0.45343829  0.83513034  0.32288194     0.04100
N1765       N  0.47921344  0.81209065  0.32852325     0.66600
H1766       H  0.48805303  0.86504939  0.30735946     0.15500
H1767       H  0.37023028  0.85258228  0.32853123     0.15200
N1768       N  0.37887428  0.90599158  0.30657264     0.74300
O1769       O  0.48852719  0.79024829  0.31660167    -0.39100
O1770       O  0.49772779  0.81851770  0.34302102    -0.39100
O1771       O  0.36129520  0.90043637  0.29156893    -0.39800
O1772       O  0.36886924  0.92715624  0.31872016    -0.39800
C1773       C  0.36859560  0.65811623  0.44321270    -0.12100
C1774       C  0.35168662  0.66663867  0.42587390     0.04900
C1775       C  0.32330577  0.64848237  0.42007293    -0.07400
C1776       C  0.31314327  0.62145874  0.43107070    -0.08200
C1777       C  0.32980700  0.61240660  0.44844964    -0.02700
C1778       C  0.35778928  0.63129344  0.45461941     0.04100
N1779       N  0.37578236  0.62352310  0.47212837     0.66600
H1780       H  0.39069364  0.67186962  0.44764776     0.15500
H1781       H  0.29179786  0.60746200  0.42576508     0.15200
N1782       N  0.30458340  0.65708403  0.40290420     0.74300
O1783       O  0.40206307  0.60590728  0.47125165    -0.39100
O1784       O  0.37063597  0.64073170  0.48710923    -0.39100
O1785       O  0.30993959  0.64150592  0.38734522    -0.39800
O1786       O  0.27783847  0.67383086  0.40448763    -0.39800
C1787       C  0.34258769  0.85977666  0.41492471    -0.12100
C1788       C  0.36819311  0.84010835  0.42307300     0.04900
C1789       C  0.38166847  0.84871905  0.44142786    -0.07400
C1790       C  0.36902276  0.87653111  0.45130793    -0.08200
C1791       C  0.34315602  0.89621185  0.44316136    -0.02700
C1792       C  0.33019995  0.88764449  0.42456286     0.04100
N1793       N  0.30536598  0.90751533  0.41476676     0.66600
H1794       H  0.33232200  0.85358807  0.40073402     0.15500
H1795       H  0.37943864  0.88262936  0.46545997     0.15200
N1796       N  0.40853736  0.82999277  0.45006487     0.74300
O1797       O  0.31480182  0.93123365  0.40418963    -0.39100
O1798       O  0.27594610  0.89645376  0.41260760    -0.39100
O1799       O  0.43824484  0.84047436  0.44859805    -0.39800
O1800       O  0.40196652  0.80892254  0.46304974    -0.39800
N1801       N  0.89584277  0.29768289  0.37607295    -0.36500
N1802       N  0.91315709  0.24214058  0.35037229    -0.57000
N1803       N  0.88954525  0.19752364  0.37992513    -0.36500
N1804       N  0.87530511  0.25290741  0.40636572    -0.57000
C1805       C  0.91316153  0.31332732  0.36196865     0.27100
C1806       C  0.89449158  0.31846689  0.39153720     0.27100
C1807       C  0.90397400  0.17525177  0.36781989     0.27100
C1808       C  0.88294170  0.18148246  0.39671835     0.27100
C1809       C  0.91693790  0.26749120  0.33764663     0.35700
C1810       C  0.91536273  0.21354809  0.34010923     0.35700
C1811       C  0.86420087  0.28159813  0.41413587     0.35700
C1812       C  0.85906219  0.22842473  0.41568526     0.35700
C1813       C  0.92299149  0.34431389  0.36857623    -0.21700
C1814       C  0.91129755  0.34750025  0.38720888    -0.21700
C1815       C  0.90601514  0.14464183  0.37711124    -0.21700
C1816       C  0.89312356  0.14868181  0.39531628    -0.21700
C1817       C  0.92188871  0.25489869  0.31915379    -0.22800
C1818       C  0.92164761  0.22081832  0.32079084    -0.22800
C1819       C  0.84092730  0.27530796  0.42853500    -0.22800
C1820       C  0.83782483  0.24147124  0.42960435    -0.22800
C1821       C  0.91823847  0.30162376  0.34278672    -0.18100
C1822       C  0.87591004  0.31318585  0.40874897    -0.18100
C1823       C  0.86462136  0.19444272  0.41248681    -0.18100
C1824       C  0.91318862  0.18111961  0.34821707    -0.18100
H1825       H  0.93687339  0.36292993  0.36069420     0.14800
H1826       H  0.91427990  0.36903662  0.39639921     0.14800
H1827       H  0.91485327  0.12127832  0.37140257     0.14800
H1828       H  0.89045665  0.12924672  0.40606098     0.14800
H1829       H  0.92602876  0.26876919  0.30591716     0.13000
H1830       H  0.92582836  0.20347533  0.30908861     0.13000
H1831       H  0.82761392  0.29317768  0.43734635     0.13000
H1832       H  0.82180711  0.22801092  0.43946806     0.13000
H1833       H  0.88196944  0.27619600  0.37419220     0.26300
H1834       H  0.88061551  0.22090901  0.37622034     0.26300
N1835       N  0.63008844  0.20236529  0.38126914    -0.36500
N1836       N  0.62884664  0.25349056  0.35021314    -0.57000
N1837       N  0.63613926  0.30292843  0.38010669    -0.36500
N1838       N  0.64007940  0.25170780  0.41035351    -0.57000
C1839       C  0.63302195  0.18409740  0.36496209     0.27100
C1840       C  0.64091503  0.18314790  0.39630569     0.27100
C1841       C  0.64103101  0.32148103  0.36391315     0.27100
C1842       C  0.64798784  0.32051267  0.39541181     0.27100
C1843       C  0.61699796  0.22696926  0.34031879     0.35700
C1844       C  0.62115077  0.28083227  0.33947397     0.35700
C1845       C  0.63773669  0.22525017  0.42230594     0.35700
C1846       C  0.64014580  0.27869208  0.42182505     0.35700
C1847       C  0.64566767  0.15291360  0.36964727    -0.21700
C1848       C  0.65099181  0.15244106  0.38939324    -0.21700
C1849       C  0.65607574  0.35114163  0.36902314    -0.21700
C1850       C  0.66039296  0.35058633  0.38885435    -0.21700
C1851       C  0.60220071  0.23740981  0.32300422    -0.22800
C1852       C  0.60471703  0.27154207  0.32250495    -0.22800
C1853       C  0.63619617  0.23544004  0.44149312    -0.22800
C1854       C  0.63782413  0.26938893  0.44119701    -0.22800
C1855       C  0.62105006  0.19347492  0.34634636    -0.18100
C1856       C  0.64062757  0.19208920  0.41617777    -0.18100
C1857       C  0.64639528  0.31112035  0.41525952    -0.18100
C1858       C  0.62928577  0.31383875  0.34492610    -0.18100
H1859       H  0.65017437  0.13241954  0.35987485     0.14800
H1860       H  0.66064300  0.13160423  0.39772793     0.14800
H1861       H  0.66271677  0.37137657  0.35946543     0.14800
H1862       H  0.67104142  0.37039402  0.39747505     0.14800
H1863       H  0.59075383  0.22204093  0.31192538     0.13000
H1864       H  0.59532227  0.28764361  0.31104554     0.13000
H1865       H  0.63505489  0.22001033  0.45436520     0.13000
H1866       H  0.63830732  0.28533230  0.45382585     0.13000
H1867       H  0.61741512  0.22491870  0.38217200     0.26300
H1868       H  0.62187939  0.28149857  0.38098442     0.26300
N1869       N  0.82369178  0.46230750  0.47553387    -0.06000
N1870       N  0.84505408  0.43874008  0.47019777    -0.58100
N1871       N  0.79147536  0.04163157  0.46364141    -0.05700
N1872       N  0.79204743  0.06772291  0.45224033    -0.60200
N1873       N  0.81707211  0.04198267  0.47589519    -0.05200
N1874       N  0.83568319  0.06861970  0.47299509    -0.58100
N1875       N  0.79811377  0.46364411  0.46329587    -0.04900
N1876       N  0.80157670  0.44162846  0.44936957    -0.60600
C1877       C  0.83089830  0.42624018  0.45372456     0.96200
C1878       C  0.81959294  0.08443619  0.45812157     0.96000
N1879       N  0.69097452  0.03915822  0.47990439    -0.06200
N1880       N  0.67081182  0.06536024  0.47864549    -0.58700
N1881       N  0.71980963  0.46241188  0.46628968    -0.04300
N1882       N  0.71728093  0.43652188  0.45478810    -0.59900
N1883       N  0.69649293  0.46171779  0.47972176    -0.06200
N1884       N  0.67737824  0.43518639  0.47750164    -0.58900
N1885       N  0.71371662  0.04013549  0.46616747    -0.03900
N1886       N  0.70989929  0.06698996  0.45545160    -0.60000
Mn1887     Mn  0.75350125  0.00278778  0.46332180     1.18400
C1888       C  0.68325650  0.08249202  0.46337386     0.98300
C1889       C  0.69087374  0.41971366  0.46190617     0.99000
N1890       N  0.82374602  0.03834725  0.52167558    -0.06200
N1891       N  0.84464184  0.06322014  0.52509940    -0.62500
N1892       N  0.80357566  0.45619249  0.53476389    -0.05000
N1893       N  0.80569521  0.42831387  0.54467055    -0.63200
N1894       N  0.82690057  0.45732587  0.52133083    -0.05700
N1895       N  0.84577182  0.43018092  0.52205449    -0.62800
N1896       N  0.80091625  0.03686471  0.53535112    -0.04600
N1897       N  0.80551090  0.06053021  0.54820855    -0.63500
Mn1898     Mn  0.82263375  0.00188799  0.49753542     1.10700
C1899       C  0.83286233  0.07667584  0.54179167     0.99500
C1900       C  0.83182642  0.41226750  0.53655775     0.99600
N1901       N  0.70035624  0.45841417  0.52510513    -0.05700
N1902       N  0.68082363  0.43229240  0.52775124    -0.61100
N1903       N  0.72235655  0.03614737  0.53787580    -0.05000
N1904       N  0.72008289  0.06032802  0.55063164    -0.57800
N1905       N  0.69660413  0.03687549  0.52570910    -0.06300
N1906       N  0.67627165  0.06191085  0.53003115    -0.60700
N1907       N  0.72587672  0.45755078  0.53737935    -0.05300
N1908       N  0.72437635  0.43117962  0.54853792    -0.57800
Mn1909     Mn  0.69304788  0.99938684  0.50199612     1.20200
Mn1910     Mn  0.76224568  0.99855630  0.53612081     1.10100
Cl1911     Cl  0.75786690  0.00070263  0.49974689    -0.85800
C1912       C  0.69632143  0.41548910  0.54248524     0.96500
C1913       C  0.69130397  0.07636542  0.54566830     0.96300
N1914       N  0.87834314  0.30002449  0.62173923    -0.36500
N1915       N  0.88120348  0.25279529  0.65367018    -0.57000
N1916       N  0.88070811  0.19999942  0.62424409    -0.36500
N1917       N  0.87441456  0.24743670  0.59325562    -0.57000
C1918       C  0.87208061  0.31962473  0.63724669     0.27100
C1919       C  0.86920636  0.31729315  0.60562060     0.27100
C1920       C  0.87903615  0.18262217  0.64099583     0.27100
C1921       C  0.87036221  0.17976350  0.60969115     0.27100
C1922       C  0.88932780  0.28070667  0.66342248     0.35700
C1923       C  0.89335513  0.22732737  0.66445516     0.35700
C1924       C  0.87792638  0.27315992  0.58094060     0.35700
C1925       C  0.87571531  0.21972528  0.58236984     0.35700
C1926       C  0.85888320  0.34968797  0.63093841    -0.21700
C1927       C  0.85689203  0.34818259  0.61099036    -0.21700
C1928       C  0.86801028  0.15076952  0.63711493    -0.21700
C1929       C  0.86211195  0.14908233  0.61738104    -0.21700
C1930       C  0.90565334  0.27290708  0.68074919    -0.22800
C1931       C  0.90814133  0.23897591  0.68142804    -0.22800
C1932       C  0.88168660  0.26175259  0.56207416    -0.22800
C1933       C  0.88004848  0.22779488  0.56297292    -0.22800
C1934       C  0.88281216  0.31307516  0.65654435    -0.18100
C1935       C  0.87319152  0.30659353  0.58616466    -0.18100
C1936       C  0.87022360  0.18754152  0.58957531    -0.18100
C1937       C  0.89085337  0.19367034  0.65927803    -0.18100
H1938       H  0.85233120  0.37084530  0.63980767     0.14800
H1939       H  0.84806988  0.36792038  0.60150862     0.14800
H1940       H  0.86494306  0.13072037  0.64742049     0.14800
H1941       H  0.85360348  0.12742698  0.60953842     0.14800
H1942       H  0.91540035  0.28985212  0.69156107     0.13000
H1943       H  0.91996404  0.22456139  0.69293269     0.13000
H1944       H  0.88409087  0.27641167  0.54896409     0.13000
H1945       H  0.88124768  0.21102062  0.55074192     0.13000
H1946       H  0.89241743  0.27824552  0.62197788     0.26300
H1947       H  0.89245223  0.22274537  0.62279948     0.26300
N1948       N  0.62721091  0.20060050  0.62457419    -0.36500
N1949       N  0.61313724  0.25349245  0.65183420    -0.57000
N1950       N  0.62796480  0.30052786  0.62195801    -0.36500
N1951       N  0.63942826  0.24767915  0.59383009    -0.57000
C1952       C  0.61289396  0.18362010  0.63922495     0.27100
C1953       C  0.62735629  0.18050287  0.60888622     0.27100
C1954       C  0.61326072  0.32057305  0.63518295     0.27100
C1955       C  0.62920971  0.31753814  0.60506932     0.27100
C1956       C  0.61373383  0.22780071  0.66432063     0.35700
C1957       C  0.61300676  0.28109610  0.66277602     0.35700
C1958       C  0.65116374  0.21996714  0.58521283     0.35700
C1959       C  0.65260539  0.27339551  0.58399447     0.35700
C1960       C  0.60371337  0.15235498  0.63274443    -0.21700
C1961       C  0.61302754  0.15035178  0.61358378    -0.21700
C1962       C  0.60499320  0.35067272  0.62654731    -0.21700
C1963       C  0.61526020  0.34881619  0.60753478    -0.21700
C1964       C  0.61387759  0.23902161  0.68335580    -0.22800
C1965       C  0.61341911  0.27300130  0.68236952    -0.22800
C1966       C  0.67114738  0.22804910  0.56953159    -0.22800
C1967       C  0.67212836  0.26204599  0.56878148    -0.22800
C1968       C  0.61043530  0.19460826  0.65864531    -0.18100
C1969       C  0.64341420  0.18752825  0.59118030    -0.18100
C1970       C  0.64621703  0.30693457  0.58826532    -0.18100
C1971       C  0.60953254  0.31324595  0.65514682    -0.18100
H1972       H  0.59228187  0.13270021  0.64108414     0.14800
H1973       H  0.61028822  0.12891749  0.60428585     0.14800
H1974       H  0.59355244  0.37204418  0.63336125     0.14800
H1975       H  0.61339583  0.36849007  0.59683932     0.14800
H1976       H  0.61344649  0.22427044  0.69651844     0.13000
H1977       H  0.61269809  0.28978454  0.69461039     0.13000
H1978       H  0.68391227  0.21123559  0.55979022     0.13000
H1979       H  0.68571867  0.27670331  0.55829640     0.13000
H1980       H  0.64038320  0.22262635  0.62597648     0.26300
H1981       H  0.64081668  0.27854182  0.62485445     0.26300
N1982       N  0.98176233  0.43252398  0.26874116    -0.06000
N1983       N  0.98029799  0.40533188  0.27915580    -0.58100
N1984       N  0.95137132  0.46495440  0.22895979    -0.05700
N1985       N  0.92746215  0.46378906  0.21564987    -0.60200
N1986       N  0.97624001  0.44454991  0.22476066    -0.05200
N1987       N  0.96861320  0.42795020  0.20864566    -0.58100
N1988       N  0.95716537  0.45308215  0.27312986    -0.04900
N1989       N  0.93761116  0.43908208  0.28645645    -0.60600
C1990       C  0.95290856  0.40923952  0.29019220     0.96200
C1991       C  0.93837616  0.44108433  0.20291051     0.96000
N1992       N  0.96726046  0.06216068  0.23247982    -0.06200
N1993       N  0.95606658  0.08422273  0.21952240    -0.58700
N1994       N  0.95470854  0.03491503  0.27920284    -0.04300
N1995       N  0.93694722  0.04068591  0.29512372    -0.59900
N1996       N  0.97676387  0.05872289  0.27683134    -0.06200
N1997       N  0.97599779  0.07966225  0.29134301    -0.58900
N1998       N  0.94469148  0.03877514  0.23484327    -0.03900
N1999       N  0.91867977  0.04352651  0.22312581    -0.60000
Mn2000     Mn  0.95069031  0.49804490  0.25396887     1.18400
C2001       C  0.92584429  0.07184115  0.21368330     0.98300
C2002       C  0.95149522  0.06831666  0.30277327     0.99000
N2003       N  0.56095267  0.44559211  0.22528023    -0.06200
N2004       N  0.56986744  0.42772554  0.20994394    -0.62500
N2005       N  0.58301385  0.46108234  0.27281790    -0.05000
N2006       N  0.60403472  0.45242415  0.28721746    -0.63200
N2007       N  0.56132505  0.43699444  0.26980705    -0.05700
N2008       N  0.56631317  0.41242509  0.28213425    -0.62800
N2009       N  0.58256239  0.46978062  0.22787764    -0.04600
N2010       N  0.60523056  0.46994325  0.21407059    -0.63500
Mn2011     Mn  0.52131191  0.43796535  0.24772481     1.10700
C2012       C  0.59716712  0.44388714  0.20284027     0.99500
C2013       C  0.59273272  0.42205139  0.29298027     0.99600
N2014       N  0.55049311  0.06674076  0.27509196    -0.05700
N2015       N  0.55421088  0.09169381  0.28711549    -0.61100
N2016       N  0.57819871  0.04278569  0.23307475    -0.05000
N2017       N  0.60158339  0.04634751  0.21989176    -0.57800
N2018       N  0.55392427  0.06480382  0.23063166    -0.06300
N2019       N  0.56140292  0.08492324  0.21599024    -0.60700
N2020       N  0.57477609  0.04469862  0.27746136    -0.05300
N2021       N  0.59655618  0.05544129  0.29084279    -0.57800
Mn2022     Mn  0.51217668  0.06536034  0.25219020     1.20200
Mn2023     Mn  0.58120499  0.50474874  0.25203232     1.10100
Cl2024     Cl  0.51706341  0.50060110  0.25181493    -0.85800
C2025       C  0.58277034  0.08463439  0.29689785     0.96500
C2026       C  0.59091674  0.07233101  0.20922025     0.96300
N2027       N  0.97419763  0.18577306  0.97664553    -0.06000
N2028       N  0.94753235  0.16682920  0.97343871    -0.58100
N2029       N  0.54724670  0.20865754  0.96392132    -0.05700
N2030       N  0.57397415  0.20601097  0.95282051    -0.60200
N2031       N  0.54830280  0.18631086  0.97789931    -0.05200
N2032       N  0.57561984  0.16763361  0.97637014    -0.58100
N2033       N  0.97650446  0.20831229  0.96283376    -0.04900
N2034       N  0.95140137  0.20555809  0.95025554    -0.60600
C2035       C  0.93361884  0.17953825  0.95686515     0.96200
C2036       C  0.59149037  0.18049755  0.96076489     0.96000
N2037       N  0.54771440  0.30998785  0.97225475    -0.06200
N2038       N  0.57347166  0.32917388  0.96808757    -0.58700
N2039       N  0.97688259  0.28545864  0.96013712    -0.04300
N2040       N  0.95329157  0.28856708  0.94659079    -0.59900
N2041       N  0.97481997  0.30980911  0.97275853    -0.06200
N2042       N  0.94973441  0.32999731  0.96797562    -0.58900
N2043       N  0.54594791  0.28516713  0.95996386    -0.03900
N2044       N  0.57034823  0.28690238  0.94719993    -0.60000
Mn2045     Mn  0.50748683  0.24672369  0.96198627     1.18400
C2046       C  0.58725396  0.31449418  0.95234089     0.98300
C2047       C  0.93647171  0.31647174  0.95158924     0.99000
N2048       N  0.55116931  0.19044659  0.02357571    -0.06200
N2049       N  0.57625689  0.16957076  0.02739724    -0.62500
N2050       N  0.97045397  0.21397374  0.03544118    -0.05000
N2051       N  0.94525123  0.21140799  0.04758609    -0.63200
N2052       N  0.97061242  0.18895017  0.02322227    -0.05700
N2053       N  0.94547029  0.16850814  0.02707189    -0.62800
N2054       N  0.55242040  0.21592197  0.03544893    -0.04600
N2055       N  0.57838854  0.21305951  0.04743387    -0.63500
Mn2056     Mn  0.51064519  0.18701507  0.00129551     1.10700
C2057       C  0.59321538  0.18418800  0.04224318     0.99500
C2058       C  0.92974297  0.18312547  0.04230369     0.99600
N2059       N  0.97054914  0.31377793  0.01864604    -0.05700
N2060       N  0.94464528  0.33430085  0.02027310    -0.61100
N2061       N  0.55242295  0.29387028  0.03203837    -0.05000
N2062       N  0.57783022  0.29905678  0.04404374    -0.57800
N2063       N  0.55172022  0.31643108  0.01817598    -0.06300
N2064       N  0.57683702  0.33767175  0.02067290    -0.60700
N2065       N  0.96990077  0.29105556  0.03237584    -0.05300
N2066       N  0.94349613  0.29523601  0.04344989    -0.57800
Mn2067     Mn  0.51083884  0.31487694  0.99566918     1.20200
Mn2068     Mn  0.51378954  0.25533142  0.03485822     1.10100
Cl2069     Cl  0.51058711  0.25096712  0.99847327    -0.85800
C2070       C  0.92796979  0.32214991  0.03578729     0.96500
C2071       C  0.59298163  0.32634711  0.03693139     0.96300
N2072       N  0.80939284  0.38760604  0.87587679    -0.36500
N2073       N  0.76052596  0.37681408  0.90654346    -0.57000
N2074       N  0.70805926  0.38934970  0.87741687    -0.36500
N2075       N  0.75677273  0.40352902  0.84781936    -0.57000
C2076       C  0.82904405  0.38832816  0.89203955     0.27100
C2077       C  0.82739665  0.40086145  0.86124364     0.27100
C2078       C  0.69014586  0.38717689  0.89396166     0.27100
C2079       C  0.68806652  0.40425276  0.86388137     0.27100
C2080       C  0.78858357  0.36451788  0.91528001     0.35700
C2081       C  0.73412854  0.36267929  0.91554655     0.35700
C2082       C  0.78301473  0.40107827  0.83558136     0.35700
C2083       C  0.72860761  0.40467267  0.83665216     0.35700
C2084       C  0.85973760  0.40251535  0.88770178    -0.21700
C2085       C  0.85862457  0.41066382  0.86827229    -0.21700
C2086       C  0.65853804  0.40115420  0.89100388    -0.21700
C2087       C  0.65726257  0.41203541  0.87203312    -0.21700
C2088       C  0.78003421  0.34326738  0.93026016    -0.22800
C2089       C  0.74546650  0.34186217  0.93031507    -0.22800
C2090       C  0.77145427  0.40094878  0.81647377    -0.22800
C2091       C  0.73695432  0.40347891  0.81716033    -0.22800
C2092       C  0.82173240  0.37222810  0.90973264    -0.18100
C2093       C  0.81722421  0.40203605  0.84148648    -0.18100
C2094       C  0.69561855  0.40786425  0.84392852    -0.18100
C2095       C  0.70001923  0.36900219  0.91071650    -0.18100
H2096       H  0.88104125  0.40574468  0.89742644     0.14800
H2097       H  0.87886380  0.42171736  0.86013692     0.14800
H2098       H  0.63816321  0.40242861  0.90130302     0.14800
H2099       H  0.63571229  0.42339310  0.86487032     0.14800
H2100       H  0.79692505  0.32966481  0.93985116     0.13000
H2101       H  0.73046086  0.32695818  0.93998924     0.13000
H2102       H  0.78631057  0.39966971  0.80339511     0.13000
H2103       H  0.71998977  0.40433798  0.80475765     0.13000
H2104       H  0.78716286  0.37440791  0.87427556     0.26300
H2105       H  0.73044095  0.37678235  0.87481966     0.26300
N2106       N  0.70618137  0.11107220  0.87944508    -0.36500
N2107       N  0.75757274  0.12980523  0.90736126    -0.57000
N2108       N  0.80823681  0.12085348  0.87793411    -0.36500
N2109       N  0.75733908  0.10465309  0.84922275    -0.57000
C2110       C  0.68725007  0.12401360  0.89389145     0.27100
C2111       C  0.68729680  0.11211301  0.86293511     0.27100
C2112       C  0.82554721  0.13848196  0.89137496     0.27100
C2113       C  0.82598647  0.12187402  0.86126866     0.27100
C2114       C  0.73139024  0.12717736  0.91958662     0.35700
C2115       C  0.78528130  0.13395461  0.91858660     0.35700
C2116       C  0.73041765  0.09107686  0.84013628     0.35700
C2117       C  0.78505235  0.09333636  0.83997836     0.35700
C2118       C  0.65590826  0.13304615  0.88652664    -0.21700
C2119       C  0.65603781  0.12584066  0.86700265    -0.21700
C2120       C  0.85440704  0.15118667  0.88306401    -0.21700
C2121       C  0.85459950  0.14080699  0.86401995    -0.21700
C2122       C  0.74250057  0.12959978  0.93870264    -0.22800
C2123       C  0.77673717  0.13390298  0.93806365    -0.22800
C2124       C  0.74106236  0.07088269  0.82510923    -0.22800
C2125       C  0.77567873  0.07238133  0.82496840    -0.22800
C2126       C  0.69737112  0.12765319  0.91358834    -0.18100
C2127       C  0.69646447  0.09826101  0.84475316    -0.18100
C2128       C  0.81838268  0.10352883  0.84431635    -0.18100
C2129       C  0.81754734  0.14078349  0.91132230    -0.18100
H2130       H  0.63512853  0.14393801  0.89436236     0.14800
H2131       H  0.63526684  0.12998762  0.85697596     0.14800
H2132       H  0.87372106  0.16580012  0.89010560     0.14800
H2133       H  0.87404580  0.14584768  0.85353542     0.14800
H2134       H  0.72733812  0.12950233  0.95168777     0.13000
H2135       H  0.79326565  0.13763077  0.95045595     0.13000
H2136       H  0.72551167  0.05660209  0.81526133     0.13000
H2137       H  0.79201171  0.05959314  0.81493341     0.13000
H2138       H  0.72933800  0.09918219  0.88114738     0.26300
H2139       H  0.78808984  0.10521885  0.88063050     0.26300
N2140       N  0.56553445  0.46443953  0.72123628    -0.06000
N2141       N  0.58597395  0.43927306  0.71746444    -0.58100
N2142       N  0.54197063  0.04211569  0.70870178    -0.05700
N2143       N  0.54419466  0.06834112  0.69742338    -0.60200
N2144       N  0.56616650  0.04183166  0.72184560    -0.05200
N2145       N  0.58579908  0.06789533  0.71964442    -0.58100
N2146       N  0.54124799  0.46605570  0.70814934    -0.04900
N2147       N  0.54430515  0.44210493  0.69534356    -0.60600
C2148       C  0.57230399  0.42573171  0.70121459     0.96200
C2149       C  0.57156710  0.08412797  0.70434791     0.96000
N2150       N  0.94565754  0.03972562  0.72118596    -0.06200
N2151       N  0.92646915  0.06638594  0.71871535    -0.58700
N2152       N  0.96479353  0.46755037  0.70530320    -0.04300
N2153       N  0.96153258  0.44369361  0.69247564    -0.59900
N2154       N  0.94068825  0.46643256  0.71815529    -0.06200
N2155       N  0.92031113  0.44137538  0.71424716    -0.58900
N2156       N  0.97004082  0.03944702  0.70841470    -0.03900
N2157       N  0.96810675  0.06578847  0.69712226    -0.60000
Mn2158     Mn  0.50265602  0.50469231  0.70857784     1.18400
C2159       C  0.94088666  0.08246372  0.70361324     0.98300
C2160       C  0.93373206  0.42746004  0.69805884     0.99000
N2161       N  0.56800805  0.03818836  0.76788816    -0.06200
N2162       N  0.59413231  0.05570817  0.77369015    -0.62500
N2163       N  0.54394597  0.45957852  0.78107677    -0.05000
N2164       N  0.55461752  0.43993456  0.79534620    -0.63200
N2165       N  0.56677828  0.46074774  0.76734254    -0.05700
N2166       N  0.59273031  0.44170960  0.77202638    -0.62800
N2167       N  0.54510568  0.03743644  0.78160322    -0.04600
N2168       N  0.55578478  0.05396934  0.79702261    -0.63500
Mn2169     Mn  0.56715225  0.50061592  0.74533263     1.10700
C2170       C  0.58635136  0.06554629  0.79188268     0.99500
C2171       C  0.58509918  0.42851025  0.78951980     0.99600
N2172       N  0.93928611  0.46376507  0.76399175    -0.05700
N2173       N  0.91275119  0.44581848  0.76811166    -0.61100
N2174       N  0.96441780  0.03727740  0.78132941    -0.05000
N2175       N  0.95440967  0.05648376  0.79572900    -0.57800
N2176       N  0.94161199  0.03745773  0.76728846    -0.06300
N2177       N  0.91598440  0.05688263  0.77196602    -0.60700
N2178       N  0.96192547  0.46149068  0.77806232    -0.05300
N2179       N  0.95073066  0.44202969  0.79202656    -0.57800
Mn2180     Mn  0.94026687  0.50314147  0.74213098     1.20200
Mn2181     Mn  0.50324511  0.49773753  0.78236068     1.10100
Cl2182     Cl  0.50294043  0.50138348  0.74535116    -0.85800
C2183       C  0.92003542  0.43224521  0.78560537     0.96500
C2184       C  0.92422604  0.06897408  0.78974175     0.96300
N2185       N  0.76116042  0.13374389  0.09667176    -0.36500
N2186       N  0.81191502  0.13085422  0.12671835    -0.57000
N2187       N  0.75968644  0.12332602  0.15649865    -0.36500
N2188       N  0.70899084  0.12350309  0.12554886    -0.57000
C2189       C  0.78878906  0.13520756  0.08542734     0.27100
C2190       C  0.73432046  0.13003089  0.08473336     0.27100
C2191       C  0.78743975  0.11274368  0.16636928     0.27100
C2192       C  0.73239491  0.11205746  0.16613621     0.27100
C2193       C  0.83161779  0.14089579  0.11193929     0.35700
C2194       C  0.83115415  0.13156824  0.14298015     0.35700
C2195       C  0.68949498  0.13120150  0.10994098     0.35700
C2196       C  0.68904117  0.12642880  0.14125638     0.35700
C2197       C  0.77938550  0.13235118  0.06603315    -0.21700
C2198       C  0.74497368  0.12902397  0.06559957    -0.21700
C2199       C  0.77758955  0.09533415  0.18276727    -0.21700
C2200       C  0.74288174  0.09494408  0.18262586    -0.21700
C2201       C  0.86362532  0.14801178  0.11887810    -0.22800
C2202       C  0.86338439  0.14190672  0.13852239    -0.22800
C2203       C  0.65696626  0.13844975  0.11577444    -0.22800
C2204       C  0.65671872  0.13551800  0.13558712    -0.22800
C2205       C  0.82178934  0.14179493  0.09210026    -0.18100
C2206       C  0.70036616  0.13208057  0.09042525    -0.18100
C2207       C  0.69835922  0.11695977  0.16034394    -0.18100
C2208       C  0.82136970  0.11893120  0.16122638    -0.18100
H2209       H  0.79548600  0.13352279  0.05345831     0.14800
H2210       H  0.72942125  0.12733446  0.05263424     0.14800
H2211       H  0.79374077  0.08385334  0.19364973     0.14800
H2212       H  0.72718385  0.08300382  0.19329749     0.14800
H2213       H  0.88515165  0.15592759  0.11058966     0.13000
H2214       H  0.88470819  0.14406917  0.14833906     0.13000
H2215       H  0.63557346  0.14522619  0.10671601     0.13000
H2216       H  0.63507012  0.13917655  0.14477833     0.13000
H2217       H  0.76007851  0.13974025  0.11126382     0.26300
H2218       H  0.75929285  0.13937845  0.14464317     0.26300
N2219       N  0.76679280  0.39475611  0.14873109    -0.36500
N2220       N  0.71355808  0.38632137  0.11914302    -0.57000
N2221       N  0.76364746  0.37771220  0.08967334    -0.36500
N2222       N  0.81691153  0.38859680  0.11825574    -0.57000
C2223       C  0.73932275  0.40590466  0.15834674     0.27100
C2224       C  0.79449411  0.40708979  0.15784666     0.27100
C2225       C  0.73587230  0.37882657  0.07821237     0.27100
C2226       C  0.79048867  0.37895013  0.07789071     0.27100
C2227       C  0.69464181  0.38630158  0.13534511     0.35700
C2228       C  0.69320990  0.37650916  0.10436808     0.35700
C2229       C  0.83724720  0.38809598  0.13413394     0.35700
C2230       C  0.83545679  0.37686573  0.10336378     0.35700
C2231       C  0.74974568  0.42505637  0.17398330    -0.21700
C2232       C  0.78446089  0.42601840  0.17356846    -0.21700
C2233       C  0.74518433  0.38103663  0.05888159    -0.21700
C2234       C  0.77975703  0.38111475  0.05867573    -0.21700
C2235       C  0.66196965  0.37698171  0.13075309    -0.22800
C2236       C  0.66112733  0.37061748  0.11118080    -0.22800
C2237       C  0.86893368  0.37641863  0.12922436    -0.22800
C2238       C  0.86780156  0.36932984  0.10974451    -0.22800
C2239       C  0.70519683  0.39856095  0.15365317    -0.18100
C2240       C  0.82850483  0.40079755  0.15258909    -0.18100
C2241       C  0.82407108  0.37391738  0.08390519    -0.18100
C2242       C  0.70268156  0.37419951  0.08463256    -0.18100
H2243       H  0.73397586  0.43731788  0.18453044     0.14800
H2244       H  0.80047839  0.43922752  0.18368771     0.14800
H2245       H  0.72881679  0.38140917  0.04621176     0.14800
H2246       H  0.79522448  0.38150987  0.04581677     0.14800
H2247       H  0.64069381  0.37560356  0.14040293     0.13000
H2248       H  0.63920523  0.36316707  0.10285904     0.13000
H2249       H  0.89068849  0.37347395  0.13867770     0.13000
H2250       H  0.88850194  0.35988881  0.10123531     0.13000
H2251       H  0.76668899  0.37735136  0.13760674     0.26300
H2252       H  0.76446776  0.37117020  0.10425759     0.26300
C2253       C  0.64173582  0.07048981  0.83733506    -0.12100
C2254       C  0.66873417  0.08966378  0.83068197     0.04900
C2255       C  0.66766066  0.10147601  0.81129269    -0.07400
C2256       C  0.64035912  0.09356252  0.79913351    -0.08200
C2257       C  0.61307447  0.07514042  0.80597550    -0.02700
C2258       C  0.61368396  0.06406139  0.82548721     0.04100
N2259       N  0.58628896  0.04611807  0.83358977     0.66600
H2260       H  0.64205072  0.06107803  0.85211386     0.15500
H2261       H  0.64025289  0.10241146  0.78423608     0.15200
N2262       N  0.69331171  0.12248964  0.80382190     0.74300
O2263       O  0.58801845  0.01494207  0.83468660    -0.39100
O2264       O  0.56487817  0.06141631  0.84365902    -0.39100
O2265       O  0.71300621  0.11124365  0.79112433    -0.39800
O2266       O  0.68993919  0.15346175  0.80547451    -0.39800
C2267       C  0.90084979  0.07081813  0.82323987    -0.12100
C2268       C  0.89832046  0.08087712  0.80370740     0.04900
C2269       C  0.86993543  0.09989541  0.79784887    -0.07400
C2270       C  0.84437695  0.10711789  0.81120935    -0.08200
C2271       C  0.84628062  0.09568554  0.83049439    -0.02700
C2272       C  0.87526861  0.07778593  0.83652510     0.04100
N2273       N  0.87868355  0.06539884  0.85593936     0.66600
H2274       H  0.92229364  0.05625633  0.82817214     0.15500
H2275       H  0.82287571  0.12182918  0.80649576     0.15200
N2276       N  0.86710917  0.11311372  0.77862147     0.74300
O2277       O  0.86768101  0.03692424  0.85987109    -0.39100
O2278       O  0.89964321  0.07866294  0.86736579    -0.39100
O2279       O  0.84735040  0.09957712  0.76661756    -0.39800
O2280       O  0.87659240  0.14243522  0.77553111    -0.39800
C2281       C  0.64635638  0.38676866  0.82497006    -0.12100
C2282       C  0.66714676  0.41349095  0.83000330     0.04900
C2283       C  0.66023049  0.44501830  0.82201140    -0.07400
C2284       C  0.63322795  0.44919645  0.80897091    -0.08200
C2285       C  0.61252303  0.42247331  0.80381992    -0.02700
C2286       C  0.61914154  0.39101849  0.81199519     0.04100
N2287       N  0.59892012  0.36309503  0.80706379     0.66600
H2288       H  0.65141538  0.36245526  0.83111159     0.15500
H2289       H  0.62820298  0.47359840  0.80291862     0.15200
N2290       N  0.67983655  0.47316704  0.82736457     0.74300
O2291       O  0.60813250  0.34418753  0.79351229    -0.39100
O2292       O  0.57728850  0.35305365  0.81897823    -0.39100
O2293       O  0.70036870  0.48500757  0.81536662    -0.39800
O2294       O  0.67110856  0.49034910  0.84178362    -0.39800
C2295       C  0.84152645  0.43812749  0.81604083    -0.12100
C2296       C  0.84327580  0.40843542  0.82658302     0.04900
C2297       C  0.87026894  0.38621705  0.82330630    -0.07400
C2298       C  0.89536249  0.39453548  0.81002282    -0.08200
C2299       C  0.89315343  0.42396844  0.79928217    -0.02700
C2300       C  0.86562067  0.44567471  0.80214324     0.04100
N2301       N  0.86196752  0.47577688  0.79131125     0.66600
H2302       H  0.82111306  0.45549967  0.81854383     0.15500
H2303       H  0.91623341  0.37760660  0.80776260     0.15200
N2304       N  0.87191019  0.35468941  0.83278506     0.74300
O2305       O  0.84481080  0.47575964  0.77577377    -0.39100
O2306       O  0.86833957  0.50298464  0.79948427    -0.39100
O2307       O  0.86035214  0.32966397  0.82408803    -0.39800
O2308       O  0.89207276  0.35049222  0.84687673    -0.39800
C2309       C  0.67302127  0.17727005  0.07261731    -0.12100
C2310       C  0.67562481  0.14329724  0.07561701     0.04900
C2311       C  0.65282634  0.12186501  0.06634529    -0.07400
C2312       C  0.62670088  0.13519617  0.05467156    -0.08200
C2313       C  0.62290069  0.16980147  0.05258152    -0.02700
C2314       C  0.64694715  0.19059266  0.06147199     0.04100
N2315       N  0.64522145  0.22562067  0.05974305     0.66600
H2316       H  0.69060494  0.19381183  0.07978098     0.15500
H2317       H  0.60866883  0.11866394  0.04795368     0.15200
N2318       N  0.65553972  0.08686509  0.06916889     0.74300
O2319       O  0.63210543  0.24170160  0.07346843    -0.39100
O2320       O  0.66617587  0.23972955  0.04887679    -0.39100
O2321       O  0.64201823  0.07371113  0.08377906    -0.39800
O2322       O  0.67702253  0.07061794  0.05967284    -0.39800
C2323       C  0.86623111  0.12772689  0.06782687    -0.12100
C2324       C  0.84719576  0.15174280  0.07756525     0.04900
C2325       C  0.85281336  0.18543866  0.07381248    -0.07400
C2326       C  0.87902935  0.19483785  0.06166741    -0.08200
C2327       C  0.89947304  0.17102174  0.05254581    -0.02700
C2328       C  0.89192479  0.13706814  0.05506917     0.04100
N2329       N  0.91052994  0.11175398  0.04538784     0.66600
H2330       H  0.86137022  0.10167655  0.07034049     0.15500
H2331       H  0.88367162  0.22104046  0.05955457     0.15200
N2332       N  0.83203250  0.21031190  0.08239590     0.74300
O2333       O  0.93335757  0.09632878  0.05460850    -0.39100
O2334       O  0.89818862  0.09897451  0.03020681    -0.39100
O2335       O  0.83817630  0.21991807  0.09949803    -0.39800
O2336       O  0.80435522  0.21796116  0.07437924    -0.39800
C2337       C  0.64469598  0.31802467  0.05646804    -0.12100
C2338       C  0.62382411  0.34026701  0.04625619     0.04900
C2339       C  0.63136670  0.37440536  0.04717722    -0.07400
C2340       C  0.65776309  0.38541977  0.05934289    -0.08200
C2341       C  0.67722166  0.36273863  0.07022749    -0.02700
C2342       C  0.67133475  0.32870497  0.06816731     0.04100
N2343       N  0.69148627  0.30486761  0.07852549     0.66600
H2344       H  0.63957557  0.29210425  0.05557599     0.15500
H2345       H  0.66252519  0.41172383  0.06069526     0.15200
N2346       N  0.61148520  0.39832676  0.03688747     0.74300
O2347       O  0.68229472  0.29470931  0.09499335    -0.39100
O2348       O  0.72056953  0.29773239  0.07257794    -0.39100
O2349       O  0.58899824  0.41409578  0.04586780    -0.39800
O2350       O  0.62212154  0.40965035  0.02099170    -0.39800
C2351       C  0.87598320  0.31512214  0.05407198    -0.12100
C2352       C  0.89801206  0.33682103  0.04473982     0.04900
C2353       C  0.89313163  0.37135523  0.04650178    -0.07400
C2354       C  0.86826993  0.38343568  0.05899174    -0.08200
C2355       C  0.84790247  0.36141879  0.06928427    -0.02700
C2356       C  0.85091533  0.32715788  0.06615829     0.04100
N2357       N  0.82964801  0.30424976  0.07592633     0.66600
H2358       H  0.87904999  0.28852889  0.05256599     0.15500
H2359       H  0.86548229  0.40990787  0.06111616     0.15200
N2360       N  0.91444867  0.39432791  0.03681712     0.74300
O2361       O  0.80504926  0.29172961  0.06690945    -0.39100
O2362       O  0.83901387  0.29202279  0.09200388    -0.39100
O2363       O  0.90414530  0.40820871  0.02138970    -0.39800
O2364       O  0.93962488  0.40596171  0.04571811    -0.39800
C2365       C  0.63873529  0.34907850  0.95139034    -0.12100
C2366       C  0.61676252  0.32725599  0.94186567     0.04900
C2367       C  0.62323703  0.31819385  0.92243351    -0.07400
C2368       C  0.65136755  0.33093468  0.91302444    -0.08200
C2369       C  0.67280998  0.35356844  0.92234852    -0.02700
C2370       C  0.66643508  0.36248257  0.94179043     0.04100
N2371       N  0.68672942  0.38627894  0.95170197     0.66600
H2372       H  0.63409010  0.35628318  0.96629570     0.15500
H2373       H  0.65574554  0.32423991  0.89800183     0.15200
N2374       N  0.60010896  0.29828759  0.91155867     0.74300
O2375       O  0.67781572  0.41634128  0.95133349    -0.39100
O2376       O  0.70701864  0.37651434  0.96476720    -0.39100
O2377       O  0.57277962  0.31072344  0.90542217    -0.39800
O2378       O  0.60652541  0.26811513  0.90844533    -0.39800
C2379       C  0.88970053  0.35781908  0.94845405    -0.12100
C2380       C  0.90708084  0.33046448  0.94068856     0.04900
C2381       C  0.89577878  0.31715224  0.92275243    -0.07400
C2382       C  0.86777340  0.33103438  0.91324632    -0.08200
C2383       C  0.85058492  0.35821916  0.92104699    -0.02700
C2384       C  0.86172819  0.37175378  0.93879704     0.04100
N2385       N  0.84547465  0.40005728  0.94696582     0.66600
H2386       H  0.89784970  0.36860103  0.96210583     0.15500
H2387       H  0.85952201  0.32069670  0.89947820     0.15200
N2388       N  0.91268839  0.29007523  0.91364036     0.74300
O2389       O  0.82412185  0.39600204  0.96019492    -0.39100
O2390       O  0.85809334  0.42835051  0.94447055    -0.39100
O2391       O  0.89914747  0.26187675  0.91360638    -0.39800
O2392       O  0.93581906  0.29603832  0.90172136    -0.39800
C2393       C  0.62262485  0.13189520  0.94780289    -0.12100
C2394       C  0.62144708  0.16600441  0.95158507     0.04900
C2395       C  0.64737330  0.18645084  0.94470943    -0.07400
C2396       C  0.67194522  0.17327874  0.93253921    -0.08200
C2397       C  0.67209136  0.13954793  0.92778519    -0.02700
C2398       C  0.64806607  0.11845084  0.93617796     0.04100
N2399       N  0.64968923  0.08341762  0.93345851     0.66600
H2400       H  0.60328442  0.11580168  0.95344914     0.15500
H2401       H  0.69121010  0.18941371  0.92683248     0.15200
N2402       N  0.65042193  0.21999075  0.95107414     0.74300
O2403       O  0.62911906  0.06972736  0.92198618    -0.39100
O2404       O  0.66541616  0.06590999  0.94581806    -0.39100
O2405       O  0.66574058  0.22574380  0.96685484    -0.39800
O2406       O  0.64610874  0.24327960  0.93903669    -0.39800
C2407       C  0.86749854  0.12637856  0.93176570    -0.12100
C2408       C  0.84471184  0.15056408  0.92511608     0.04900
C2409       C  0.84960771  0.18387571  0.93033493    -0.07400
C2410       C  0.87818017  0.19272050  0.94127473    -0.08200
C2411       C  0.90171941  0.16859216  0.94752285    -0.02700
C2412       C  0.89572640  0.13503727  0.94299316     0.04100
N2413       N  0.91944658  0.10976186  0.94819318     0.66600
H2414       H  0.86392138  0.10072053  0.92764685     0.15500
H2415       H  0.88229018  0.21860149  0.94466793     0.15200
N2416       N  0.82634059  0.20893819  0.92400370     0.74300
O2417       O  0.91397522  0.09195389  0.96291591    -0.39100
O2418       O  0.94000688  0.09974282  0.93561115    -0.39100
O2419       O  0.79968086  0.21380241  0.93341383    -0.39800
O2420       O  0.82941639  0.22183645  0.90738904    -0.39800
C2421       C  0.89071335  0.40393578  0.19558903    -0.12100
C2422       C  0.91450726  0.42659954  0.18876424     0.04900
C2423       C  0.90922380  0.44150362  0.17043335    -0.07400
C2424       C  0.88070734  0.43344650  0.15927948    -0.08200
C2425       C  0.85693722  0.41045649  0.16595123    -0.02700
C2426       C  0.86220213  0.39567481  0.18439992     0.04100
N2427       N  0.83882704  0.37247902  0.19211695     0.66600
H2428       H  0.89365400  0.39347456  0.21004580     0.15500
H2429       H  0.87713010  0.44513695  0.14519463     0.15200
N2430       N  0.93225062  0.46541345  0.16308807     0.74300
O2431       O  0.84469137  0.34189168  0.19028831    -0.39100
O2432       O  0.81841985  0.38199441  0.20491569    -0.39100
O2433       O  0.95586030  0.45591894  0.15227526    -0.39800
O2434       O  0.92445563  0.49575813  0.16348468    -0.39800
C2435       C  0.63433919  0.39826805  0.19087663    -0.12100
C2436       C  0.62167472  0.43060721  0.18871801     0.04900
C2437       C  0.63688502  0.45200150  0.17515018    -0.07400
C2438       C  0.66485346  0.44140827  0.16461851    -0.08200
C2439       C  0.67801970  0.40942675  0.16704708    -0.02700
C2440       C  0.66216041  0.38747316  0.18004382     0.04100
N2441       N  0.67369125  0.35408591  0.18219299     0.66600
H2442       H  0.62324248  0.38164379  0.20138050     0.15500
H2443       H  0.67579668  0.45795265  0.15399951     0.15200
N2444       N  0.62272619  0.48380126  0.17085633     0.74300
O2445       O  0.69313511  0.34671028  0.19617716    -0.39100
O2446       O  0.65846162  0.33129220  0.17326492    -0.39100
O2447       O  0.63812980  0.50949852  0.17622861    -0.39800
O2448       O  0.60086481  0.48603122  0.15748182    -0.39800
C2449       C  0.89132936  0.06664479  0.18365953    -0.12100
C2450       C  0.90230793  0.08658606  0.19916397     0.04900
C2451       C  0.88662478  0.11765380  0.20205073    -0.07400
C2452       C  0.86006647  0.12791814  0.18974293    -0.08200
C2453       C  0.84880478  0.10756126  0.17457324    -0.02700
C2454       C  0.86486518  0.07690033  0.17139616     0.04100
N2455       N  0.85411893  0.05588412  0.15583846     0.66600
H2456       H  0.90296070  0.04263902  0.18132475     0.15500
H2457       H  0.84799479  0.15169606  0.19212296     0.15200
N2458       N  0.89599848  0.13820373  0.21803721     0.74300
O2459       O  0.86848511  0.05769738  0.13959918    -0.39100
O2460       O  0.82675046  0.04039278  0.15716169    -0.39100
O2461       O  0.91633187  0.16159564  0.21529914    -0.39800
O2462       O  0.87813410  0.13824492  0.23309750    -0.39800
C2463       C  0.63299547  0.11506760  0.20085315    -0.12100
C2464       C  0.61354862  0.08782478  0.19509307     0.04900
C2465       C  0.62223646  0.07048544  0.17810379    -0.07400
C2466       C  0.65053680  0.07978431  0.16757147    -0.08200
C2467       C  0.67044914  0.10666396  0.17339979    -0.02700
C2468       C  0.66119059  0.12476099  0.19007643     0.04100
N2469       N  0.68007524  0.15287995  0.19626720     0.66600
H2470       H  0.62712371  0.12798365  0.21420355     0.15500
H2471       H  0.65685279  0.06613854  0.15453646     0.15200
N2472       N  0.60214267  0.04366975  0.17113915     0.74300
O2473       O  0.70277553  0.14918675  0.20905943    -0.39100
O2474       O  0.66883224  0.18158315  0.19266275    -0.39100
O2475       O  0.58283540  0.04838606  0.15670736    -0.39800
O2476       O  0.60922817  0.01439457  0.17627247    -0.39800
C2477       C  0.55849957  0.13847231  0.68970375    -0.12100
C2478       C  0.58302978  0.11562511  0.69614271     0.04900
C2479       C  0.61726046  0.12165644  0.69241817    -0.07400
C2480       C  0.62611425  0.14876915  0.68094080    -0.08200
C2481       C  0.60131695  0.17010358  0.67348895    -0.02700
C2482       C  0.56752629  0.16587025  0.67857966     0.04100
N2483       N  0.54210989  0.18815320  0.67149904     0.66600
H2484       H  0.53212381  0.13430843  0.69267379     0.15500
H2485       H  0.65219988  0.15230136  0.67703816     0.15200
N2486       N  0.64297724  0.09901863  0.69858955     0.74300
O2487       O  0.53335086  0.18716497  0.65382793    -0.39100
O2488       O  0.53366985  0.21272008  0.68170760    -0.39100
O2489       O  0.65365398  0.07765096  0.68675579    -0.39800
O2490       O  0.66060269  0.10598127  0.71336171    -0.39800
C2491       C  0.62541759  0.36284610  0.67444802    -0.12100
C2492       C  0.60058007  0.34040834  0.66856365     0.04900
C2493       C  0.56740366  0.34438754  0.67513531    -0.07400
C2494       C  0.55912086  0.37178290  0.68650331    -0.08200
C2495       C  0.58362099  0.39500298  0.69183110    -0.02700
C2496       C  0.61725025  0.38995644  0.68620411     0.04100
N2497       N  0.64285133  0.41321312  0.69114268     0.66600
H2498       H  0.65105451  0.35964052  0.66953902     0.15500
H2499       H  0.53323603  0.37526839  0.69091766     0.15200
N2500       N  0.54173576  0.32131731  0.66992415     0.74300
O2501       O  0.66278286  0.40676407  0.70505705    -0.39100
O2502       O  0.65043612  0.43546546  0.67906027    -0.39100
O2503       O  0.53360224  0.29904367  0.68187074    -0.39800
O2504       O  0.52281030  0.32735800  0.65549313    -0.39800
C2505       C  0.94894752  0.12867962  0.68032210    -0.12100
C2506       C  0.92853992  0.11359429  0.69439066     0.04900
C2507       C  0.89675854  0.12790089  0.69842488    -0.07400
C2508       C  0.88500480  0.15487621  0.68734699    -0.08200
C2509       C  0.90482619  0.16833560  0.67267564    -0.02700
C2510       C  0.93746046  0.15607414  0.66970861     0.04100
N2511       N  0.95889197  0.17122496  0.65572647     0.66600
H2512       H  0.97387270  0.11903799  0.67735389     0.15500
H2513       H  0.86004819  0.16483290  0.68986410     0.15200
N2514       N  0.87580419  0.11519809  0.71338474     0.74300
O2515       O  0.46452634  0.20227506  0.66010907    -0.39100
O2516       O  0.96084200  0.15915648  0.63887045    -0.39100
O2517       O  0.87539187  0.12967176  0.72961674    -0.39800
O2518       O  0.85204690  0.09600433  0.70889623    -0.39800
C2519       C  0.92278284  0.35863651  0.66094576    -0.12100
C2520       C  0.89489630  0.34181479  0.66809077     0.04900
C2521       C  0.87978882  0.35282939  0.68540644    -0.07400
C2522       C  0.89284595  0.38061553  0.69512849    -0.08200
C2523       C  0.92061119  0.39785476  0.68773299    -0.02700
C2524       C  0.93550586  0.38643618  0.67032131     0.04100
N2525       N  0.96296904  0.40316845  0.66143523     0.66600
H2526       H  0.93460401  0.35029726  0.64766448     0.15500
H2527       H  0.88095838  0.38890534  0.70837545     0.15200
N2528       N  0.85073821  0.33683964  0.69296209     0.74300
O2529       O  0.99252448  0.39249894  0.66427403    -0.39100
O2530       O  0.95712358  0.42237016  0.64726835    -0.39100
O2531       O  0.85398137  0.31750005  0.70731683    -0.39800
O2532       O  0.82197438  0.34831773  0.68873651    -0.39800
C2533       C  0.82033338  0.13091853  0.55641154    -0.12100
C2534       C  0.84470309  0.10749747  0.55103270     0.04900
C2535       C  0.87839863  0.11204118  0.55703337    -0.07400
C2536       C  0.88661498  0.13855443  0.56937738    -0.08200
C2537       C  0.86177688  0.16105160  0.57539089    -0.02700
C2538       C  0.82869517  0.15778526  0.56822336     0.04100
N2539       N  0.80301578  0.18087177  0.57347994     0.66600
H2540       H  0.79436298  0.12784808  0.55182016     0.15500
H2541       H  0.91225318  0.14122058  0.57461635     0.15200
N2542       N  0.90407275  0.08897151  0.55173668     0.74300
O2543       O  0.79477517  0.20373329  0.56178172    -0.39100
O2544       O  0.78418108  0.17434593  0.58760585    -0.39100
O2545       O  0.92305340  0.09576001  0.53770243    -0.39800
O2546       O  0.91264197  0.06638729  0.56354148    -0.39800
C2547       C  0.87823990  0.38136305  0.55273945    -0.12100
C2548       C  0.84556412  0.38151382  0.54490004     0.04900
C2549       C  0.82407637  0.35463124  0.54857133    -0.07400
C2550       C  0.83437050  0.32953312  0.56129628    -0.08200
C2551       C  0.86595613  0.33072155  0.57040421    -0.02700
C2552       C  0.88858233  0.35609862  0.56552684     0.04100
N2553       N  0.92145244  0.35724091  0.57406559     0.66600
H2554       H  0.89487880  0.40200421  0.55002566     0.15500
H2555       H  0.81709517  0.30972388  0.56474027     0.15200
N2556       N  0.79136864  0.35293053  0.53984683     0.74300
O2557       O  0.92653668  0.37493124  0.58889234    -0.39100
O2558       O  0.94623957  0.34656333  0.56457278    -0.39100
O2559       O  0.78753809  0.33688429  0.52426906    -0.39800
O2560       O  0.76592443  0.36004723  0.54984978    -0.39800
C2561       C  0.69526036  0.11457806  0.57400320    -0.12100
C2562       C  0.67808935  0.10516060  0.55685553     0.04900
C2563       C  0.64919020  0.12351659  0.55106191    -0.07400
C2564       C  0.63811379  0.15029983  0.56234610    -0.08200
C2565       C  0.65540584  0.15930280  0.57932269    -0.02700
C2566       C  0.68422268  0.14141780  0.58513401     0.04100
N2567       N  0.70254029  0.15059132  0.60229650     0.66600
H2568       H  0.71756953  0.10121306  0.57881287     0.15500
H2569       H  0.61593834  0.16418771  0.55783579     0.15200
N2570       N  0.63100248  0.11578624  0.53368174     0.74300
O2571       O  0.69806954  0.13475001  0.61788904    -0.39100
O2572       O  0.71769354  0.17796783  0.60284179    -0.39100
O2573       O  0.60416364  0.09939983  0.53482613    -0.39800
O2574       O  0.63688934  0.13194737  0.51837042    -0.39800
C2575       C  0.69843381  0.37828006  0.57090854    -0.12100
C2576       C  0.68313217  0.38629725  0.55296944     0.04900
C2577       C  0.65659222  0.36625907  0.54597445    -0.07400
C2578       C  0.64512274  0.33980769  0.55739008    -0.08200
C2579       C  0.66012480  0.33280467  0.57548320    -0.02700
C2580       C  0.68749181  0.35170135  0.58198822     0.04100
N2581       N  0.70459424  0.34398608  0.59983623     0.66600
H2582       H  0.71920401  0.39273422  0.57655787     0.15500
H2583       H  0.62427266  0.32491927  0.55224874     0.15200
N2584       N  0.64149540  0.37181648  0.52731392     0.74300
O2585       O  0.72900915  0.32384575  0.59972970    -0.39100
O2586       O  0.70013592  0.36214709  0.61450314    -0.39100
O2587       O  0.65001765  0.35363626  0.51327362    -0.39800
O2588       O  0.61443014  0.38823171  0.52611873    -0.39800
C2589       C  0.57377303  0.12106572  0.32488217    -0.12100
C2590       C  0.59643653  0.10850631  0.31122455     0.04900
C2591       C  0.62760675  0.12453091  0.30897107    -0.07400
C2592       C  0.63484848  0.15315112  0.31989136    -0.05400
C2593       C  0.61146329  0.16593787  0.33313996    -0.02700
C2594       C  0.58094304  0.14918752  0.33585635     0.04100
N2595       N  0.55676563  0.16057682  0.34961663     0.66600
H2596       H  0.54975522  0.10945772  0.32675196     0.15500
H2597       H  0.65890595  0.16524120  0.31819740     0.15200
N2598       N  0.65160975  0.11288331  0.29526719     0.74300
O2599       O  0.55688345  0.14828418  0.36650863    -0.39100
O2600       O  0.53098425  0.17605509  0.34361299    -0.39100
O2601       O  0.65345393  0.12690732  0.27889914    -0.39800
O2602       O  0.67574028  0.09489496  0.30114614    -0.39800
C2603       C  0.59905721  0.36692431  0.33732910    -0.12100
C2604       C  0.62231152  0.34265144  0.33141876     0.04900
C2605       C  0.63929807  0.34760723  0.31367076    -0.07400
C2606       C  0.63165897  0.37556907  0.30199360    -0.08200
C2607       C  0.60775769  0.39932589  0.30779339    -0.02700
C2608       C  0.59176204  0.39487372  0.32581075     0.04100
N2609       N  0.56705759  0.41802684  0.33236705     0.66600
H2610       H  0.58602108  0.36388448  0.35098035     0.15500
H2611       H  0.64348787  0.37802434  0.28794085     0.15200
N2612       N  0.66420256  0.32455807  0.30722993     0.74300
O2613       O  0.53643903  0.41314623  0.32840336    -0.39100
O2614       O  0.57477809  0.43825902  0.34561135    -0.39100
O2615       O  0.65712958  0.30497516  0.29353444    -0.39800
O2616       O  0.69465550  0.32935484  0.31167144    -0.39800
C2617       C  0.67965233  0.16713734  0.44064653    -0.12100
C2618       C  0.64844187  0.16614090  0.43101333     0.04900
C2619       C  0.62654802  0.13944080  0.43459959    -0.07400
C2620       C  0.63711713  0.11321112  0.44667132    -0.08200
C2621       C  0.66924482  0.11334639  0.45521600    -0.02700
C2622       C  0.69004475  0.14112546  0.45276590     0.04100
N2623       N  0.72211796  0.14292632  0.46223591     0.66600
H2624       H  0.69652868  0.18769374  0.43818670     0.15500
H2625       H  0.62098915  0.09188342  0.44845575     0.15200
N2626       N  0.59406986  0.13812948  0.42557201     0.74300
O2627       O  0.74811879  0.13428677  0.45317517    -0.39100
O2628       O  0.72513740  0.15959790  0.47763987    -0.39100
O2629       O  0.58955242  0.11977317  0.41096633    -0.39800
O2630       O  0.56890300  0.14914457  0.43458973    -0.39800
C2631       C  0.69047536  0.33910759  0.43435695    -0.12100
C2632       C  0.65633667  0.33594586  0.42992618     0.04900
C2633       C  0.63279941  0.35780075  0.43816586    -0.07400
C2634       C  0.64408246  0.38397349  0.44990839    -0.08200
C2635       C  0.67870806  0.38862686  0.45317262    -0.02700
C2636       C  0.70186058  0.36526644  0.44576637     0.04100
N2637       N  0.73721747  0.36833265  0.44912231     0.66600
H2638       H  0.70853933  0.32199754  0.42815346     0.15500
H2639       H  0.62603922  0.40171666  0.45547438     0.15200
N2640       N  0.59774594  0.35456722  0.43380385     0.74300
O2641       O  0.75067449  0.35291043  0.46318962    -0.39100
O2642       O  0.75550637  0.37854423  0.43551482    -0.39100
O2643       O  0.58090796  0.33250935  0.44227697    -0.39800
O2644       O  0.58554660  0.36876692  0.41893737    -0.39800
C2645       C  0.90800953  0.10890056  0.31229820    -0.12100
C2646       C  0.93710885  0.09093516  0.31720384     0.04900
C2647       C  0.95816518  0.10254422  0.33224614    -0.07400
C2648       C  0.95130019  0.13301525  0.34114646    -0.08200
C2649       C  0.92216023  0.15136335  0.33623896    -0.02700
C2650       C  0.90004932  0.13856333  0.32190252     0.04100
N2651       N  0.86952212  0.15539390  0.31677608     0.66600
H2652       H  0.89221689  0.10072877  0.30032360     0.15500
H2653       H  0.96797345  0.14175478  0.35257189     0.15200
N2654       N  0.98611006  0.08291349  0.33891510     0.74300
O2655       O  0.86868193  0.17315913  0.30165062    -0.39100
O2656       O  0.84223310  0.14501507  0.32365731    -0.39100
O2657       O  0.49965163  0.07856312  0.32294441    -0.39800
O2658       O  0.98106371  0.05899373  0.35035255    -0.39800
C2659       C  0.96583763  0.35684153  0.30773838    -0.12100
C2660       C  0.94203896  0.38200640  0.30345929     0.04900
C2661       C  0.90940979  0.37889572  0.31110364    -0.07400
C2662       C  0.90178920  0.35174985  0.32317741    -0.08200
C2663       C  0.92606688  0.32725794  0.32776143    -0.02700
C2664       C  0.95834088  0.32995573  0.31975730     0.04100
N2665       N  0.98425684  0.30628696  0.32417282     0.66600
H2666       H  0.99098733  0.35804564  0.30187810     0.15500
H2667       H  0.87681039  0.34993301  0.32924518     0.15200
N2668       N  0.88338135  0.40206162  0.30620022     0.74300
O2669       O  0.99267031  0.28554522  0.31138102    -0.39100
O2670       O  0.00405716  0.31167968  0.33824774    -0.39100
O2671       O  0.86470751  0.39641894  0.29165245    -0.39800
O2672       O  0.87392395  0.42280000  0.31873833    -0.39800
C2673       C  0.86792439  0.16167137  0.44309734    -0.12100
C2674       C  0.85015214  0.17021294  0.42608540     0.04900
C2675       C  0.82204819  0.15167698  0.42035521    -0.07400
C2676       C  0.81269014  0.12434249  0.43127119    -0.08200
C2677       C  0.83081844  0.11474621  0.44803707    -0.02700
C2678       C  0.85866071  0.13391311  0.45407807     0.04100
N2679       N  0.87889049  0.12468929  0.47052322     0.66600
H2680       H  0.89015273  0.17550012  0.44722484     0.15500
H2681       H  0.79143172  0.11004306  0.42612408     0.15200
N2682       N  0.80401693  0.15909139  0.40277477     0.74300
O2683       O  0.90429133  0.10631820  0.46804244    -0.39100
O2684       O  0.87650865  0.14109002  0.48604677    -0.39100
O2685       O  0.80937680  0.14184675  0.38782910    -0.39800
O2686       O  0.77784600  0.17688369  0.40348449    -0.39800
C2687       C  0.84618366  0.36723937  0.41178404    -0.12100
C2688       C  0.86610228  0.34260071  0.42061976     0.04900
C2689       C  0.87600118  0.34649086  0.44028467    -0.07400
C2690       C  0.86508166  0.37430833  0.45078286    -0.08200
C2691       C  0.84464643  0.39865233  0.44196123    -0.02700
C2692       C  0.83594263  0.39528800  0.42206761     0.04100
N2693       N  0.81834140  0.42096699  0.41172850     0.66600
H2694       H  0.83886741  0.36486179  0.39662653     0.15500
H2695       H  0.87222723  0.37660071  0.46596342     0.15200
N2696       N  0.89742635  0.32272423  0.44972646     0.74300
O2697       O  0.83497808  0.44357716  0.40363266    -0.39100
O2698       O  0.78800191  0.41680353  0.40681225    -0.39100
O2699       O  0.92884198  0.32693436  0.44950872    -0.39800
O2700       O  0.88511585  0.30309377  0.46202891    -0.39800
N2701       N  0.89541092  0.79669751  0.37839284    -0.36500
N2702       N  0.91011541  0.74143811  0.35207410    -0.57000
N2703       N  0.88903902  0.69685174  0.38215143    -0.36500
N2704       N  0.87706810  0.75189080  0.40929746    -0.57000
C2705       C  0.91198533  0.81240985  0.36398179     0.27100
C2706       C  0.89482739  0.81739598  0.39391388     0.27100
C2707       C  0.90328771  0.67486305  0.36977099     0.27100
C2708       C  0.88513572  0.68113127  0.39935786     0.27100
C2709       C  0.91222318  0.76699797  0.33931761     0.35700
C2710       C  0.90993803  0.71298175  0.34156950     0.35700
C2711       C  0.86582485  0.78053602  0.41708540     0.35700
C2712       C  0.86118466  0.72727821  0.41874366     0.35700
C2713       C  0.92241741  0.84323764  0.37055717    -0.21700
C2714       C  0.91149551  0.84640045  0.38937628    -0.21700
C2715       C  0.90827186  0.64485570  0.37939731    -0.21700
C2716       C  0.89734902  0.64900846  0.39805084    -0.21700
C2717       C  0.91346478  0.75466504  0.32054730    -0.22800
C2718       C  0.91283562  0.72056434  0.32199949    -0.22800
C2719       C  0.84301647  0.77407904  0.43170760    -0.22800
C2720       C  0.84016604  0.74020019  0.43281115    -0.22800
C2721       C  0.91540378  0.80101693  0.34455896    -0.18100
C2722       C  0.87653543  0.81226766  0.41125196    -0.18100
C2723       C  0.86668987  0.69331923  0.41530825    -0.18100
C2724       C  0.90917803  0.68041801  0.34967699    -0.18100
H2725       H  0.93593011  0.86188845  0.36249164     0.14800
H2726       H  0.91477525  0.86791923  0.39855030     0.14800
H2727       H  0.91762854  0.62170667  0.37369581     0.14800
H2728       H  0.89694758  0.62994677  0.40915246     0.14800
H2729       H  0.91540274  0.76871310  0.30718903     0.13000
H2730       H  0.91465375  0.70344919  0.30998575     0.13000
H2731       H  0.82966499  0.79186948  0.44055340     0.13000
H2732       H  0.82434257  0.72665800  0.44273940     0.13000
H2733       H  0.88129683  0.77528356  0.37675638     0.26300
H2734       H  0.87804424  0.71944191  0.37842092     0.26300
N2735       N  0.63869110  0.70000180  0.37929229    -0.36500
N2736       N  0.63117806  0.75141181  0.34898574    -0.57000
N2737       N  0.63763499  0.80024323  0.37935144    -0.36500
N2738       N  0.64722420  0.74887790  0.40874151    -0.57000
C2739       C  0.64305738  0.68308738  0.36259307     0.27100
C2740       C  0.65281284  0.68165930  0.39379073     0.27100
C2741       C  0.64044405  0.81928307  0.36320506     0.27100
C2742       C  0.65015269  0.81792698  0.39443217     0.27100
C2743       C  0.61982838  0.72446801  0.33928884     0.35700
C2744       C  0.61988234  0.77853048  0.33914337     0.35700
C2745       C  0.64564284  0.72190357  0.42033087     0.35700
C2746       C  0.64489907  0.77545460  0.42047016     0.35700
C2747       C  0.66076092  0.65399711  0.36641075    -0.21700
C2748       C  0.66696456  0.65311376  0.38614344    -0.21700
C2749       C  0.65507687  0.84927007  0.36806091    -0.21700
C2750       C  0.66124685  0.84841488  0.38775533    -0.21700
C2751       C  0.60151313  0.73451305  0.32301867    -0.22800
C2752       C  0.60156394  0.76877672  0.32292918    -0.22800
C2753       C  0.64209388  0.73135667  0.43956015    -0.22800
C2754       C  0.64174700  0.76542381  0.43965359    -0.22800
C2755       C  0.62736016  0.69115612  0.34465529    -0.18100
C2756       C  0.65119470  0.68925577  0.41382016    -0.18100
C2757       C  0.64950601  0.80834381  0.41424069    -0.18100
C2758       C  0.62666255  0.81174536  0.34470298    -0.18100
H2759       H  0.66747396  0.63488937  0.35611080     0.14800
H2760       H  0.67970003  0.63336001  0.39401570     0.14800
H2761       H  0.66006714  0.86992352  0.35845750     0.14800
H2762       H  0.67196984  0.86833638  0.39625574     0.14800
H2763       H  0.58933481  0.71884317  0.31235944     0.13000
H2764       H  0.58933177  0.78464681  0.31225995     0.13000
H2765       H  0.64092595  0.71542893  0.45221954     0.13000
H2766       H  0.64027875  0.78102171  0.45239866     0.13000
H2767       H  0.62280023  0.72040311  0.38093464     0.26300
H2768       H  0.62394855  0.77844073  0.38044400     0.26300
N2769       N  0.81940674  0.96525746  0.47345586    -0.06000
N2770       N  0.84070076  0.94138121  0.46859199    -0.58100
N2771       N  0.79646722  0.53912094  0.46624995    -0.05700
N2772       N  0.79585613  0.56607859  0.45561320    -0.60200
N2773       N  0.82190676  0.53952199  0.47859724    -0.05200
N2774       N  0.83938121  0.56720574  0.47640682    -0.58100
N2775       N  0.79390881  0.96608777  0.46113578    -0.04900
N2776       N  0.79738663  0.94324592  0.44762595    -0.60600
C2777       C  0.82667375  0.92798060  0.45234965     0.96200
C2778       C  0.82256138  0.58349676  0.46190794     0.96000
N2779       N  0.69678945  0.53911113  0.48134176    -0.06200
N2780       N  0.67782454  0.56615410  0.47965545    -0.58700
N2781       N  0.71582735  0.96335967  0.46459782    -0.04300
N2782       N  0.71373427  0.93735102  0.45312033    -0.59900
N2783       N  0.69306930  0.96190981  0.47834062    -0.06200
N2784       N  0.67469349  0.93480982  0.47629005    -0.58900
N2785       N  0.71991342  0.53894303  0.46782957    -0.03900
N2786       N  0.71774328  0.56571894  0.45694989    -0.60000
Mn2787     Mn  0.75841803  0.50079563  0.46541813     1.18400
C2788       C  0.69173873  0.58259923  0.46449248     0.98300
C2789       C  0.68807519  0.91976369  0.46050723     0.99000
N2790       N  0.82754490  0.53430516  0.52423330    -0.06200
N2791       N  0.84717190  0.56027911  0.52737767    -0.62500
N2792       N  0.80145967  0.96075689  0.53301042    -0.05000
N2793       N  0.80467514  0.93343392  0.54333473    -0.63200
N2794       N  0.82416517  0.96173410  0.51924003    -0.05700
N2795       N  0.84370276  0.93508854  0.52007671    -0.62800
N2796       N  0.80480878  0.53213791  0.53791142    -0.04600
N2797       N  0.80846016  0.55613027  0.55058831    -0.63500
Mn2798     Mn  0.82676856  0.49840437  0.49992802     1.10700
C2799       C  0.83486061  0.57355542  0.54399920     0.99500
C2800       C  0.83088498  0.91768998  0.53510631     0.99600
N2801       N  0.69822291  0.95965377  0.52402646    -0.05700
N2802       N  0.67929793  0.93333119  0.52738147    -0.61100
N2803       N  0.72632319  0.53366907  0.53992405    -0.05000
N2804       N  0.72440570  0.55777864  0.55277869    -0.57800
N2805       N  0.70113466  0.53557439  0.52739733    -0.06300
N2806       N  0.68158948  0.56125162  0.53155409    -0.60700
N2807       N  0.72393943  0.96012031  0.53616117    -0.05300
N2808       N  0.72319501  0.93446216  0.54790640    -0.57800
Mn2809     Mn  0.69696685  0.49886438  0.50340368     1.20200
Mn2810     Mn  0.76526667  0.49486616  0.53808485     1.10100
Cl2811     Cl  0.76186851  0.49822231  0.50173740    -0.85800
C2812       C  0.69538687  0.91782210  0.54240104     0.96500
C2813       C  0.69643654  0.57493088  0.54746938     0.96300
N2814       N  0.87747032  0.80427351  0.61876710    -0.36500
N2815       N  0.88122373  0.75721032  0.65115223    -0.57000
N2816       N  0.87892138  0.70361323  0.62262473    -0.36500
N2817       N  0.87139110  0.75073181  0.59087853    -0.57000
C2818       C  0.87216790  0.82447507  0.63413546     0.27100
C2819       C  0.86863841  0.82144623  0.60255906     0.27100
C2820       C  0.88139650  0.68579182  0.63925371     0.27100
C2821       C  0.87089267  0.68239450  0.60809644     0.27100
C2822       C  0.88794554  0.78552393  0.66086029     0.35700
C2823       C  0.89229711  0.73208378  0.66262997     0.35700
C2824       C  0.87300630  0.77607905  0.57811240     0.35700
C2825       C  0.86994311  0.72265645  0.58028933     0.35700
C2826       C  0.86018480  0.85489341  0.62764354    -0.21700
C2827       C  0.85775736  0.85295852  0.60774510    -0.21700
C2828       C  0.87555641  0.65264627  0.63520167    -0.21700
C2829       C  0.86869216  0.65054365  0.61563682    -0.21700
C2830       C  0.90218653  0.77832892  0.67887271    -0.22800
C2831       C  0.90487697  0.74444109  0.68000948    -0.22800
C2832       C  0.87266360  0.76404494  0.55924021    -0.22800
C2833       C  0.87027241  0.73021176  0.56062114    -0.22800
C2834       C  0.88192057  0.81780589  0.65356072    -0.18100
C2835       C  0.87086298  0.80992322  0.58315444    -0.18100
C2836       C  0.86705973  0.69038609  0.58806666    -0.18100
C2837       C  0.89120081  0.69809882  0.65773032    -0.18100
H2838       H  0.85436812  0.87643693  0.63636249     0.14800
H2839       H  0.84924594  0.87271494  0.59818446     0.14800
H2840       H  0.87646247  0.63195632  0.64524071     0.14800
H2841       H  0.86347036  0.62789068  0.60780825     0.14800
H2842       H  0.91026863  0.79567835  0.68992050     0.13000
H2843       H  0.91541226  0.73052129  0.69211675     0.13000
H2844       H  0.87299112  0.77820341  0.54585521     0.13000
H2845       H  0.86882600  0.71319629  0.54851211     0.13000
H2846       H  0.89066307  0.78203385  0.61910788     0.26300
H2847       H  0.88538407  0.72817367  0.62116127     0.26300
N2848       N  0.63235358  0.69993287  0.62493058    -0.36500
N2849       N  0.61613276  0.75165701  0.65231429    -0.57000
N2850       N  0.63232167  0.80016761  0.62307403    -0.36500
N2851       N  0.64591340  0.74842742  0.59485066    -0.57000
C2852       C  0.61746979  0.68220301  0.63911429     0.27100
C2853       C  0.63329150  0.68056088  0.60894926     0.27100
C2854       C  0.61673816  0.81954019  0.63629925     0.27100
C2855       C  0.63431879  0.81792210  0.60644958     0.27100
C2856       C  0.61618636  0.72560766  0.66459887     0.35700
C2857       C  0.61490776  0.77902511  0.66346571     0.35700
C2858       C  0.65770336  0.72102616  0.58592859     0.35700
C2859       C  0.65847442  0.77455450  0.58508776     0.35700
C2860       C  0.60875292  0.65121485  0.63203476    -0.21700
C2861       C  0.61886972  0.65015125  0.61298729    -0.21700
C2862       C  0.60874379  0.84995154  0.62794952    -0.21700
C2863       C  0.61999703  0.84897936  0.60912162    -0.21700
C2864       C  0.61484275  0.73639787  0.68369231    -0.22800
C2865       C  0.61399056  0.77040888  0.68296862    -0.22800
C2866       C  0.67721599  0.72971860  0.57015058    -0.22800
C2867       C  0.67771250  0.76376873  0.56961758    -0.22800
C2868       C  0.61378528  0.69241699  0.65861745    -0.18100
C2869       C  0.65012085  0.68834177  0.59157398    -0.18100
C2870       C  0.65151991  0.80794011  0.58956339    -0.18100
C2871       C  0.61192923  0.81144909  0.65608727    -0.18100
H2872       H  0.59699796  0.63117491  0.63989105     0.14800
H2873       H  0.61657140  0.62914070  0.60332318     0.14800
H2874       H  0.59670142  0.87093448  0.63483116     0.14800
H2875       H  0.61833924  0.86904415  0.59866987     0.14800
H2876       H  0.61370627  0.72133033  0.69671090     0.13000
H2877       H  0.61223581  0.78687114  0.69531998     0.13000
H2878       H  0.68978920  0.71327313  0.56011731     0.13000
H2879       H  0.69069513  0.77883569  0.55906823     0.13000
H2880       H  0.64530618  0.72198897  0.62681475     0.26300
H2881       H  0.64494919  0.77803989  0.62591243     0.26300
N2882       N  0.97984685  0.93046519  0.26906396    -0.06000
N2883       N  0.97771474  0.90290029  0.27915528    -0.58100
N2884       N  0.94737285  0.96453800  0.23086823    -0.05700
N2885       N  0.92016943  0.96220196  0.22005987    -0.60200
N2886       N  0.97073988  0.94325742  0.22544668    -0.05200
N2887       N  0.95839288  0.92497942  0.21088334    -0.58100
N2888       N  0.95641746  0.95183403  0.27424444    -0.04900
N2889       N  0.93704207  0.93809032  0.28775408    -0.60600
C2890       C  0.95111895  0.90746503  0.29080426     0.96200
C2891       C  0.92672207  0.93772953  0.20754305     0.96000
N2892       N  0.96647135  0.56317882  0.23111180    -0.06200
N2893       N  0.95387894  0.58530868  0.21856495    -0.58700
N2894       N  0.95233813  0.53644464  0.27742138    -0.04300
N2895       N  0.93214192  0.54299595  0.29226049    -0.59900
N2896       N  0.97382919  0.56091571  0.27527216    -0.06200
N2897       N  0.96980741  0.58349264  0.28872799    -0.58900
N2898       N  0.94499179  0.53874928  0.23321182    -0.03900
N2899       N  0.91859289  0.54279559  0.22176774    -0.60000
Mn2900     Mn  0.95015524  0.99749588  0.25556334     1.18400
C2901       C  0.92413265  0.57171977  0.21267390     0.98300
C2902       C  0.94415604  0.57221491  0.29931809     0.99000
N2903       N  0.55970675  0.94623583  0.22711350    -0.06200
N2904       N  0.57133495  0.92806836  0.21244697    -0.62500
N2905       N  0.57602376  0.96105081  0.27584279    -0.05000
N2906       N  0.59491154  0.95204667  0.29107108    -0.63200
N2907       N  0.55436701  0.93737970  0.27171977    -0.05700
N2908       N  0.55707190  0.91291032  0.28436261    -0.62800
N2909       N  0.58213684  0.96887095  0.23167089    -0.04600
N2910       N  0.60817255  0.96743995  0.22011251    -0.63500
Mn2911     Mn  0.51661297  0.93958149  0.24793132     1.10700
C2912       C  0.60165412  0.94209863  0.20811992     0.99500
C2913       C  0.58201169  0.92220227  0.29649311     0.99600
N2914       N  0.55353681  0.56605634  0.27324934    -0.05700
N2915       N  0.55864900  0.59137420  0.28489813    -0.61100
N2916       N  0.57705997  0.54446306  0.23025361    -0.05000
N2917       N  0.59989156  0.55146187  0.21719129    -0.57800
N2918       N  0.55157864  0.56544080  0.22906805    -0.06300
N2919       N  0.55737324  0.58798969  0.21545383    -0.60700
N2920       N  0.57850848  0.54448166  0.27453436    -0.05300
N2921       N  0.60178922  0.55561883  0.28685802    -0.57800
Mn2922     Mn  0.51246483  0.56348109  0.25183671     1.20200
Mn2923     Mn  0.57850359  0.00424176  0.25531151     1.10100
Cl2924     Cl  0.51442161  0.00229828  0.25259614    -0.85800
C2925       C  0.58858667  0.58473011  0.29331858     0.96500
C2926       C  0.58730760  0.57827121  0.20792124     0.96300
N2927       N  0.96864716  0.67770173  0.97917306    -0.06000
N2928       N  0.94369778  0.65638250  0.97689703    -0.58100
N2929       N  0.54606444  0.69704254  0.96283971    -0.05700
N2930       N  0.57147788  0.69115751  0.95109859    -0.60200
N2931       N  0.54633963  0.67559125  0.97729326    -0.05200
N2932       N  0.57190840  0.65467122  0.97570528    -0.58100
N2933       N  0.96859539  0.69936707  0.96481261    -0.04900
N2934       N  0.94335066  0.69357097  0.95269235    -0.60600
C2935       C  0.92810282  0.66667202  0.96031487     0.96200
C2936       C  0.58741692  0.66487400  0.95937616     0.96000
N2937       N  0.54711756  0.80071541  0.97096320    -0.06200
N2938       N  0.57117874  0.82151971  0.96619208    -0.58700
N2939       N  0.96931977  0.77729708  0.96079274    -0.04300
N2940       N  0.94351037  0.77958748  0.94861327    -0.59900
N2941       N  0.96984501  0.80294374  0.97260000    -0.06200
N2942       N  0.94456038  0.82338389  0.96846381    -0.58900
N2943       N  0.54640470  0.77534296  0.95894024    -0.03900
N2944       N  0.57033362  0.77821316  0.94588809    -0.60000
Mn2945     Mn  0.50729886  0.73662324  0.96069172     1.18400
C2946       C  0.58546249  0.80708220  0.95061095     0.98300
C2947       C  0.92816643  0.80832749  0.95356397     0.99000
N2948       N  0.54935288  0.68295570  0.02247665    -0.06200
N2949       N  0.57624121  0.66389921  0.02518084    -0.62500
N2950       N  0.97122827  0.71105253  0.03694008    -0.05000
N2951       N  0.94620968  0.71033982  0.04935580    -0.63200
N2952       N  0.96999887  0.68531490  0.02526631    -0.05700
N2953       N  0.94425298  0.66617801  0.02975649    -0.62800
N2954       N  0.55060007  0.70878560  0.03408325    -0.04600
N2955       N  0.57836852  0.70813526  0.04469051    -0.63500
Mn2956     Mn  0.50869214  0.67851406  0.00044971     1.10700
C2957       C  0.59420973  0.68019040  0.03896065     0.99500
C2958       C  0.92964335  0.68227970  0.04479388     0.99600
N2959       N  0.97092470  0.80962197  0.01857331    -0.05700
N2960       N  0.94504805  0.83012243  0.02101427    -0.61100
N2961       N  0.55094074  0.78625140  0.03121978    -0.05000
N2962       N  0.57493341  0.79285053  0.04396953    -0.57800
N2963       N  0.55075684  0.80828002  0.01708897    -0.06300
N2964       N  0.57483191  0.83045800  0.02009686    -0.60700
N2965       N  0.97221029  0.78767683  0.03272519    -0.05300
N2966       N  0.94752505  0.79254325  0.04491476    -0.57800
Mn2967     Mn  0.51036014  0.80604831  0.99433999     1.20200
Mn2968     Mn  0.51202022  0.74776452  0.03365684     1.10100
Cl2969     Cl  0.50960427  0.74227848  0.99720505    -0.85800
C2970       C  0.93064060  0.81895981  0.03761507     0.96500
C2971       C  0.58986828  0.82041815  0.03699826     0.96300
N2972       N  0.80777151  0.87723405  0.87300999    -0.36500
N2973       N  0.75659634  0.86257369  0.90128398    -0.57000
N2974       N  0.70555078  0.87617845  0.87200980    -0.36500
N2975       N  0.75656712  0.88822829  0.84299968    -0.57000
C2976       C  0.82665792  0.86320596  0.88734565     0.27100
C2977       C  0.82616865  0.87601661  0.85657531     0.27100
C2978       C  0.68736428  0.85985146  0.88545428     0.27100
C2979       C  0.68741530  0.87590739  0.85528083     0.27100
C2980       C  0.78368384  0.86231595  0.91334250     0.35700
C2981       C  0.72904734  0.86046357  0.91259361     0.35700
C2982       C  0.78385263  0.89979457  0.83368333     0.35700
C2983       C  0.72938008  0.90075421  0.83351094     0.35700
C2984       C  0.85734308  0.85300685  0.87990718    -0.21700
C2985       C  0.85698869  0.86101931  0.86049851    -0.21700
C2986       C  0.65764320  0.84868010  0.87704141    -0.21700
C2987       C  0.65754332  0.85912499  0.85802908    -0.21700
C2988       C  0.77331168  0.86004911  0.93247689    -0.22800
C2989       C  0.73866287  0.85892828  0.93200597    -0.22800
C2990       C  0.77396851  0.91966186  0.81813937    -0.22800
C2991       C  0.73933123  0.92015508  0.81798607    -0.22800
C2992       C  0.81748685  0.86034095  0.90710683    -0.18100
C2993       C  0.81736581  0.89123248  0.83867299    -0.18100
C2994       C  0.69586124  0.89301223  0.83814702    -0.18100
C2995       C  0.69574790  0.85677532  0.90540037    -0.18100
H2996       H  0.87801932  0.84121879  0.88766969     0.14800
H2997       H  0.87737929  0.85683188  0.85046660     0.14800
H2998       H  0.63767992  0.83507667  0.88399459     0.14800
H2999       H  0.63758001  0.85519743  0.84748141     0.14800
H3000       H  0.78909688  0.85845528  0.94536605     0.13000
H3001       H  0.72247034  0.85639460  0.94447079     0.13000
H3002       H  0.79000219  0.93235751  0.80794990     0.13000
H3003       H  0.72332973  0.93313791  0.80762324     0.13000
H3004       H  0.78544854  0.89040145  0.87481837     0.26300
H3005       H  0.72685416  0.89039567  0.87465429     0.26300
N3006       N  0.70752915  0.60625461  0.87891047    -0.36500
N3007       N  0.75754900  0.61225255  0.90901376    -0.57000
N3008       N  0.80914373  0.59846994  0.88095366    -0.36500
N3009       N  0.75828234  0.59428473  0.85017850    -0.57000
C3010       C  0.69045325  0.62158638  0.89322547     0.27100
C3011       C  0.69124657  0.61324738  0.86202982     0.27100
C3012       C  0.82713777  0.61316629  0.89531529     0.27100
C3013       C  0.82750982  0.60054288  0.86457334     0.27100
C3014       C  0.72997242  0.61008397  0.92020813     0.35700
C3015       C  0.78445679  0.60955979  0.92102847     0.35700
C3016       C  0.73045217  0.58547299  0.84000162     0.35700
C3017       C  0.78479902  0.57985777  0.84137573     0.35700
C3018       C  0.66369100  0.63945090  0.88528333    -0.21700
C3019       C  0.66405720  0.63395932  0.86555158    -0.21700
C3020       C  0.85722952  0.62474014  0.88795376    -0.21700
C3021       C  0.85738811  0.61690153  0.86850993    -0.21700
C3022       C  0.73947763  0.60507068  0.93947600    -0.22800
C3023       C  0.77412983  0.60541112  0.94002637    -0.22800
C3024       C  0.73925913  0.56497642  0.82472545    -0.22800
C3025       C  0.77381491  0.56161238  0.82550461    -0.22800
C3026       C  0.69708413  0.61738058  0.91331502    -0.18100
C3027       C  0.69776570  0.59743711  0.84417868    -0.18100
C3028       C  0.81874010  0.58597405  0.84657067    -0.18100
C3029       C  0.81776797  0.61477620  0.91505866    -0.18100
H3030       H  0.64521993  0.65408952  0.89296659     0.14800
H3031       H  0.64581488  0.64323197  0.85505126     0.14800
H3032       H  0.87713205  0.63731003  0.89579009     0.14800
H3033       H  0.87741585  0.62230372  0.85846441     0.14800
H3034       H  0.72325557  0.60285853  0.95194234     0.13000
H3035       H  0.78990068  0.60348431  0.95290555     0.13000
H3036       H  0.72265825  0.55385359  0.81406859     0.13000
H3037       H  0.78911557  0.54760984  0.81547179     0.13000
H3038       H  0.72613629  0.58819014  0.88089022     0.26300
H3039       H  0.78726190  0.58469504  0.88257408     0.26300
N3040       N  0.56738249  0.96519893  0.72015066    -0.06000
N3041       N  0.58801804  0.93999246  0.71677540    -0.58100
N3042       N  0.54179498  0.54183802  0.71031692    -0.05700
N3043       N  0.54462400  0.56777250  0.69888012    -0.60200
N3044       N  0.56595804  0.54115662  0.72348033    -0.05200
N3045       N  0.58623740  0.56677747  0.72104806    -0.58100
N3046       N  0.54312179  0.96608004  0.70705759    -0.04900
N3047       N  0.54640059  0.94159193  0.69461645    -0.60600
C3048       C  0.57451571  0.92561612  0.70072318     0.96200
C3049       C  0.57231879  0.58313655  0.70563047     0.96000
N3050       N  0.94308349  0.54367705  0.72045175    -0.06200
N3051       N  0.92364653  0.57020393  0.71798867    -0.58700
N3052       N  0.97066172  0.96344061  0.70754985    -0.04300
N3053       N  0.96673135  0.94060811  0.69412100    -0.59900
N3054       N  0.94580716  0.96274448  0.71999058    -0.06200
N3055       N  0.92430904  0.93909418  0.71512910    -0.58900
N3056       N  0.96736780  0.54354963  0.70764875    -0.03900
N3057       N  0.96521818  0.56986072  0.69632174    -0.60000
Mn3058     Mn  0.50365871  0.00390697  0.70725999     1.18400
C3059       C  0.93789205  0.58636613  0.70284480     0.98300
C3060       C  0.93790988  0.92533723  0.69895373     0.99000
N3061       N  0.56707899  0.53587754  0.76974061    -0.06200
N3062       N  0.59275774  0.55417914  0.77531135    -0.62500
N3063       N  0.54571616  0.96243323  0.77984946    -0.05000
N3064       N  0.55553555  0.94140132  0.79358481    -0.63200
N3065       N  0.56813809  0.96293608  0.76589167    -0.05700
N3066       N  0.59299140  0.94205248  0.76975686    -0.62800
N3067       N  0.54450079  0.53445526  0.78361201    -0.04600
N3068       N  0.55498703  0.55140863  0.79894701    -0.63500
Mn3069     Mn  0.56823543  0.00212022  0.74381764     1.10700
C3070       C  0.58506326  0.56396477  0.79352554     0.99500
C3071       C  0.58498912  0.92847466  0.78705680     0.99600
N3072       N  0.94352070  0.96208180  0.76640161    -0.05700
N3073       N  0.91819298  0.94272733  0.77101414    -0.61100
N3074       N  0.96453128  0.53641107  0.78030261    -0.05000
N3075       N  0.95499692  0.55395287  0.79547782    -0.57800
N3076       N  0.94146599  0.53847808  0.76644343    -0.06300
N3077       N  0.91619867  0.55746951  0.77204426    -0.60700
N3078       N  0.96620894  0.96209268  0.78050319    -0.05300
N3079       N  0.95635684  0.94301955  0.79496083    -0.57800
Mn3080     Mn  0.94320042  0.00042211  0.74356058     1.20200
Mn3081     Mn  0.50457461  0.00032101  0.78103222     1.10100
Cl3082     Cl  0.50393769  0.00203879  0.74410944    -0.85800
C3083       C  0.92643163  0.93087214  0.78885498     0.96500
C3084       C  0.92474709  0.56713236  0.79024270     0.96300
N3085       N  0.75996335  0.63940417  0.09776859    -0.36500
N3086       N  0.80870587  0.63309986  0.12835693    -0.57000
N3087       N  0.75523309  0.62758868  0.15703278    -0.36500
N3088       N  0.70640942  0.63238142  0.12546879    -0.57000
C3089       C  0.78823056  0.63675658  0.08723883     0.27100
C3090       C  0.73386288  0.63379582  0.08560208     0.27100
C3091       C  0.78175986  0.61410430  0.16682596     0.27100
C3092       C  0.72674192  0.61697434  0.16568650     0.27100
C3093       C  0.82909094  0.64411029  0.11417263     0.35700
C3094       C  0.82696064  0.63358827  0.14497005     0.35700
C3095       C  0.68869172  0.64226649  0.10960799     0.35700
C3096       C  0.68647695  0.63792906  0.14090617     0.35700
C3097       C  0.78014781  0.62924080  0.06810854    -0.21700
C3098       C  0.74563166  0.62723717  0.06708214    -0.21700
C3099       C  0.76998447  0.59516405  0.18214803    -0.21700
C3100       C  0.73526227  0.59676340  0.18133492    -0.21700
C3101       C  0.86045434  0.65179026  0.12179892    -0.22800
C3102       C  0.85923993  0.64471939  0.14131408    -0.22800
C3103       C  0.65732182  0.65409108  0.11494641    -0.22800
C3104       C  0.65600092  0.65155012  0.13482207    -0.22800
C3105       C  0.82061663  0.64422790  0.09421980    -0.18100
C3106       C  0.69998742  0.63924420  0.09031697    -0.18100
C3107       C  0.69349609  0.62579052  0.15980521    -0.18100
C3108       C  0.81618061  0.61977644  0.16266550    -0.18100
H3109       H  0.79725856  0.62644658  0.05607351     0.14800
H3110       H  0.73082304  0.62285030  0.05405878     0.14800
H3111       H  0.78484084  0.58150102  0.19276914     0.14800
H3112       H  0.71827245  0.58433130  0.19110573     0.14800
H3113       H  0.88227253  0.66037421  0.11400842     0.13000
H3114       H  0.87999328  0.64680769  0.15152640     0.13000
H3115       H  0.63735422  0.66321058  0.10550384     0.13000
H3116       H  0.63464100  0.65791855  0.14373800     0.13000
H3117       H  0.75837601  0.64973272  0.11155446     0.26300
H3118       H  0.75648034  0.64530905  0.14603234     0.26300
N3119       N  0.76147705  0.89587638  0.14578898    -0.36500
N3120       N  0.70980749  0.89003429  0.11576470    -0.57000
N3121       N  0.76109231  0.88250382  0.08619202    -0.36500
N3122       N  0.81264111  0.88498946  0.11745467    -0.57000
C3123       C  0.73350139  0.89185622  0.15665412     0.27100
C3124       C  0.78876084  0.89026899  0.15744757     0.27100
C3125       C  0.73342766  0.87180142  0.07650122     0.27100
C3126       C  0.78814404  0.86870426  0.07752722     0.27100
C3127       C  0.69080166  0.90155471  0.13050077     0.35700
C3128       C  0.69120840  0.89374060  0.09931946     0.35700
C3129       C  0.83205268  0.89638997  0.13220820     0.35700
C3130       C  0.83111457  0.88772723  0.10119493     0.35700
C3131       C  0.74316074  0.88335940  0.17547893    -0.21700
C3132       C  0.77795021  0.88244261  0.17598326    -0.21700
C3133       C  0.74307125  0.85186936  0.06111643    -0.21700
C3134       C  0.77765852  0.84981964  0.06180253    -0.21700
C3135       C  0.66027780  0.91336391  0.12326607    -0.22800
C3136       C  0.66028012  0.90773401  0.10355511    -0.22800
C3137       C  0.86268446  0.90713414  0.12517684    -0.22800
C3138       C  0.86232071  0.90101938  0.10554049    -0.22800
C3139       C  0.69985252  0.89907099  0.15044294    -0.18100
C3140       C  0.82295179  0.89495857  0.15199958    -0.18100
C3141       C  0.82198443  0.87365735  0.08320567    -0.18100
C3142       C  0.69980903  0.87966366  0.08127437    -0.18100
H3143       H  0.72682192  0.87903270  0.18770700     0.14800
H3144       H  0.79352831  0.87721436  0.18863263     0.14800
H3145       H  0.72687300  0.83970251  0.05063988     0.14800
H3146       H  0.79324278  0.83580446  0.05192695     0.14800
H3147       H  0.63973812  0.92408531  0.13136533     0.13000
H3148       H  0.63971209  0.91274222  0.09351585     0.13000
H3149       H  0.88343462  0.91756959  0.13335474     0.13000
H3150       H  0.88282145  0.90525294  0.09561566     0.13000
H3151       H  0.76194243  0.90633904  0.13195839     0.26300
H3152       H  0.76167385  0.89983271  0.09738224     0.26300
C3153       C  0.63989214  0.57535807  0.83879049    -0.12100
C3154       C  0.66842697  0.59068063  0.83093653     0.04900
C3155       C  0.66765870  0.59992403  0.81112824    -0.07400
C3156       C  0.63991006  0.59149493  0.79943410    -0.08200
C3157       C  0.61170034  0.57553965  0.80720885    -0.02700
C3158       C  0.61135360  0.56875538  0.82737004     0.04100
N3159       N  0.58241813  0.55535645  0.83661600     0.66600
H3160       H  0.63961093  0.56871382  0.85407138     0.15500
H3161       H  0.64024597  0.59796249  0.78413207     0.15200
N3162       N  0.69381658  0.61941166  0.80287026     0.74300
O3163       O  0.58135475  0.52470451  0.84021517    -0.39100
O3164       O  0.56265350  0.57471611  0.84535687    -0.39100
O3165       O  0.71156874  0.60728199  0.78951462    -0.39800
O3166       O  0.69291879  0.65045207  0.80501631    -0.39800
C3167       C  0.90141284  0.55989488  0.82336673    -0.12100
C3168       C  0.89855451  0.57454366  0.80485557     0.04900
C3169       C  0.86891451  0.59241286  0.80007519    -0.07400
C3170       C  0.84328372  0.59567314  0.81377734    -0.08200
C3171       C  0.84582676  0.58030204  0.83205942    -0.02700
C3172       C  0.87515220  0.56183621  0.83670467     0.04100
N3173       N  0.87802128  0.54353248  0.85448831     0.66600
H3174       H  0.92336048  0.54510703  0.82718202     0.15500
H3175       H  0.82118193  0.61035369  0.81009687     0.15200
N3176       N  0.86432900  0.60746974  0.78141149     0.74300
O3177       O  0.86659433  0.51444886  0.85515638    -0.39100
O3178       O  0.89899104  0.55259602  0.86727479    -0.39100
O3179       O  0.84458537  0.59422755  0.76927555    -0.39800
O3180       O  0.87254838  0.63736093  0.77909639    -0.39800
C3181       C  0.66347220  0.88556638  0.80711836    -0.12100
C3182       C  0.66799935  0.90261948  0.82466962     0.04900
C3183       C  0.64435317  0.92695298  0.83008155    -0.07400
C3184       C  0.61640278  0.93350379  0.81816059    -0.08200
C3185       C  0.61199098  0.91694218  0.80043392    -0.02700
C3186       C  0.63594567  0.89284813  0.79485875     0.04100
N3187       N  0.63239099  0.87519513  0.77698776     0.66600
H3188       H  0.68130753  0.86648638  0.80298196     0.15500
H3189       H  0.59886384  0.95274531  0.82239156     0.15200
N3190       N  0.64925888  0.94624666  0.84724833     0.74300
O3191       O  0.64837234  0.88479826  0.76227306    -0.39100
O3192       O  0.62030282  0.84635530  0.77719571    -0.39100
O3193       O  0.66594567  0.97269172  0.84628323    -0.39800
O3194       O  0.63135098  0.94085180  0.86194152    -0.39800
C3195       C  0.86995874  0.92229982  0.83271827    -0.12100
C3196       C  0.84531430  0.90068042  0.82554806     0.04900
C3197       C  0.84849872  0.88787653  0.80658803    -0.07400
C3198       C  0.87557991  0.89756671  0.79505443    -0.08200
C3199       C  0.90022799  0.91916253  0.80224852    -0.02700
C3200       C  0.89744756  0.93131224  0.82142356     0.04100
N3201       N  0.92127535  0.95403902  0.82940091     0.66600
H3202       H  0.86776133  0.93232036  0.84726538     0.15500
H3203       H  0.87747297  0.88800468  0.78039009     0.15200
N3204       N  0.82500846  0.86447188  0.79899679     0.74300
O3205       O  0.91598771  0.98478099  0.82767497    -0.39100
O3206       O  0.94270432  0.94378666  0.84171158    -0.39100
O3207       O  0.80462432  0.87342214  0.78578398    -0.39800
O3208       O  0.83031423  0.83395612  0.80178491    -0.39800
C3209       C  0.67563416  0.67959098  0.06730577    -0.12100
C3210       C  0.67623333  0.64718205  0.07436051     0.04900
C3211       C  0.65296476  0.62396219  0.06727544    -0.07400
C3212       C  0.62736923  0.63434019  0.05439216    -0.08200
C3213       C  0.62509387  0.66770745  0.04856361    -0.02700
C3214       C  0.65049159  0.68995875  0.05439623     0.04100
N3215       N  0.65069164  0.72349093  0.04777403     0.66600
H3216       H  0.69414566  0.69726165  0.07241672     0.15500
H3217       H  0.60830118  0.61684853  0.04983957     0.15200
N3218       N  0.65478826  0.59016155  0.07344167     0.74300
O3219       O  0.64609730  0.74631393  0.05994410    -0.39100
O3220       O  0.66476285  0.73022417  0.03189701    -0.39100
O3221       O  0.64117789  0.58159735  0.08915077    -0.39800
O3222       O  0.67529787  0.57071660  0.06536397    -0.39800
C3223       C  0.86972171  0.62919038  0.07387684    -0.12100
C3224       C  0.84662587  0.65316014  0.07998958     0.04900
C3225       C  0.84904007  0.68589120  0.07315133    -0.07400
C3226       C  0.87580931  0.69473484  0.06119513    -0.08200
C3227       C  0.89981200  0.67100205  0.05551427    -0.02700
C3228       C  0.89612900  0.63777663  0.06157337     0.04100
N3229       N  0.92032219  0.61298289  0.05665669     0.66600
H3230       H  0.86773469  0.60393230  0.07912384     0.15500
H3231       H  0.87814002  0.72030707  0.05654772     0.15200
N3232       N  0.82493946  0.71042212  0.07878015     0.74300
O3233       O  0.94497434  0.60781966  0.06798751    -0.39100
O3234       O  0.91249843  0.59115488  0.04434430    -0.39100
O3235       O  0.82759420  0.72391163  0.09524367    -0.39800
O3236       O  0.79773095  0.71331370  0.06929355    -0.39800
C3237       C  0.63101840  0.82179313  0.06449877    -0.12100
C3238       C  0.61800960  0.83735312  0.04765689     0.04900
C3239       C  0.63211729  0.86807053  0.04198798    -0.07400
C3240       C  0.65884351  0.88185469  0.05290082    -0.08200
C3241       C  0.67202788  0.86536644  0.06930678    -0.02700
C3242       C  0.65818607  0.83491716  0.07488362     0.04100
N3243       N  0.67197913  0.81682706  0.09104472     0.66600
H3244       H  0.62006043  0.79908237  0.06976805     0.15500
H3245       H  0.66917752  0.90553761  0.04863517     0.15200
N3246       N  0.61894184  0.88627404  0.02576554     0.74300
O3247       O  0.65949368  0.82038481  0.10770401    -0.39100
O3248       O  0.69952092  0.80144634  0.08925729    -0.39100
O3249       O  0.59852147  0.90975367  0.02872870    -0.39800
O3250       O  0.63369982  0.88454289  0.00964355    -0.39800
C3251       C  0.89523027  0.82113615  0.06672242    -0.12100
C3252       C  0.90219041  0.83427252  0.04825337     0.04900
C3253       C  0.88182161  0.86054621  0.04104228    -0.07400
C3254       C  0.85561644  0.87318784  0.05251126    -0.08200
C3255       C  0.84930131  0.85995070  0.07100237    -0.02700
C3256       C  0.86923946  0.83351183  0.07798245     0.04100
N3257       N  0.86303118  0.81843867  0.09641951     0.66600
H3258       H  0.90998601  0.80077398  0.07267301     0.15500
H3259       H  0.84017084  0.89342543  0.04700434     0.15200
N3260       N  0.88678502  0.87432421  0.02215636     0.74300
O3261       O  0.84273187  0.79460985  0.09737174    -0.39100
O3262       O  0.88339734  0.82318710  0.11030319    -0.39100
O3263       O  0.86693642  0.86644072  0.00852421    -0.39800
O3264       O  0.90420020  0.90019257  0.02049374    -0.39800
C3265       C  0.61360970  0.85326500  0.93346620    -0.12100
C3266       C  0.61459405  0.82063592  0.94034336     0.04900
C3267       C  0.64305386  0.80079169  0.93690147    -0.07400
C3268       C  0.66985463  0.81334534  0.92615471    -0.08200
C3269       C  0.66870318  0.84580625  0.91877558    -0.02700
C3270       C  0.64019249  0.86591181  0.92254554     0.04100
N3271       N  0.63728337  0.89877755  0.91489124     0.66600
H3272       H  0.59163910  0.86863168  0.93602914     0.15500
H3273       H  0.69147337  0.79763272  0.92335567     0.15200
N3274       N  0.64557965  0.76846789  0.94524946     0.74300
O3275       O  0.62078983  0.90340201  0.89933767    -0.39100
O3276       O  0.64213778  0.92299366  0.92611470    -0.39100
O3277       O  0.64026979  0.74339706  0.93475557    -0.39800
O3278       O  0.64534062  0.76553706  0.96351746    -0.39800
C3279       C  0.89617371  0.85647971  0.93944636    -0.12100
C3280       C  0.89837182  0.82226579  0.94312768     0.04900
C3281       C  0.87249253  0.80160873  0.93607247    -0.07400
C3282       C  0.84544525  0.81500036  0.92548559    -0.08200
C3283       C  0.84390858  0.84881021  0.92112803    -0.02700
C3284       C  0.86958410  0.86976069  0.92817035     0.04100
N3285       N  0.86969243  0.90422049  0.92338017     0.66600
H3286       H  0.91592895  0.87274574  0.94457905     0.15500
H3287       H  0.82611118  0.79861194  0.91993104     0.15200
N3288       N  0.87288061  0.76687765  0.93974167     0.74300
O3289       O  0.86039033  0.92507458  0.93588952    -0.39100
O3290       O  0.88602251  0.91395026  0.90882113    -0.39100
O3291       O  0.85257395  0.75532993  0.95196193    -0.39800
O3292       O  0.88575779  0.74780840  0.92730732    -0.39800
C3293       C  0.61072264  0.62339940  0.93660693    -0.12100
C3294       C  0.61636802  0.64805345  0.95053124     0.04900
C3295       C  0.64933237  0.65922023  0.95397451    -0.07400
C3296       C  0.67520327  0.64925905  0.94164858    -0.08200
C3297       C  0.66968427  0.62521613  0.92729583    -0.02700
C3298       C  0.63738512  0.61086733  0.92557580     0.04100
N3299       N  0.63147565  0.58337378  0.91293182     0.66600
H3300       H  0.58555533  0.61391574  0.93428059     0.15500
H3301       H  0.69986372  0.66016293  0.94346843     0.15200
N3302       N  0.65733172  0.67909610  0.97052556     0.74300
O3303       O  0.61354490  0.58723242  0.89783947    -0.39100
O3304       O  0.63747280  0.55442361  0.91908878    -0.39100
O3305       O  0.65782212  0.66550219  0.98707508    -0.39800
O3306       O  0.67343260  0.70558770  0.96817863    -0.39800
C3307       C  0.86851463  0.60514130  0.93628567    -0.12100
C3308       C  0.84307267  0.62658914  0.92946990     0.04900
C3309       C  0.84418970  0.66032528  0.93449162    -0.07400
C3310       C  0.87139835  0.67236098  0.94537502    -0.08200
C3311       C  0.89770644  0.65144658  0.95150511    -0.02700
C3312       C  0.89561652  0.61725940  0.94742018     0.04100
N3313       N  0.92190538  0.59497597  0.95320886     0.66600
H3314       H  0.86795774  0.57917432  0.93232798     0.15500
H3315       H  0.87248950  0.69830420  0.94881234     0.15200
N3316       N  0.81890161  0.68290531  0.92754411     0.74300
O3317       O  0.91889002  0.57846051  0.96868819    -0.39100
O3318       O  0.94363796  0.58629229  0.94095479    -0.39100
O3319       O  0.79218586  0.68681469  0.93704222    -0.39800
O3320       O  0.82089948  0.69478692  0.91060702    -0.39800
C3321       C  0.90528562  0.89708133  0.18239385    -0.12100
C3322       C  0.89994494  0.92537311  0.19380071     0.04900
C3323       C  0.86810309  0.94176858  0.19208131    -0.07400
C3324       C  0.84367291  0.93050789  0.17894091    -0.08200
C3325       C  0.84911969  0.90271996  0.16732112    -0.02700
C3326       C  0.88026913  0.88550553  0.16938996     0.04100
N3327       N  0.88694731  0.85603166  0.15861540     0.66600
H3328       H  0.92893776  0.88371333  0.18360673     0.15500
H3329       H  0.82022666  0.94423714  0.17752408     0.15200
N3330       N  0.85976005  0.97034605  0.20333874     0.74300
O3331       O  0.90841668  0.85691947  0.14524078    -0.39100
O3332       O  0.87972878  0.82842389  0.16609195    -0.39100
O3333       O  0.85921130  0.99838919  0.19519029    -0.39800
O3334       O  0.84417793  0.96655078  0.21907635    -0.39800
C3335       C  0.61949478  0.90343748  0.18135245    -0.12100
C3336       C  0.62680105  0.93040173  0.19351268     0.04900
C3337       C  0.65864435  0.94606362  0.19150411    -0.07400
C3338       C  0.68137598  0.93509873  0.17752037    -0.08200
C3339       C  0.67426928  0.90812778  0.16550254    -0.02700
C3340       C  0.64288795  0.89201150  0.16757853     0.04100
N3341       N  0.63453414  0.86363883  0.15616808     0.66600
H3342       H  0.59562650  0.89085666  0.18265732     0.15500
H3343       H  0.70513654  0.94789514  0.17608017     0.15200
N3344       N  0.66916916  0.97271459  0.20377497     0.74300
O3345       O  0.64340929  0.83532068  0.16219896    -0.39100
O3346       O  0.61121441  0.86589159  0.14363330    -0.39100
O3347       O  0.68639284  0.96608607  0.21881774    -0.39800
O3348       O  0.67006314  0.00170857  0.19687927    -0.39800
C3349       C  0.88252020  0.56431349  0.18603048    -0.12100
C3350       C  0.89861433  0.58603580  0.19907316     0.04900
C3351       C  0.88641356  0.61884898  0.20057514    -0.07400
C3352       C  0.85856123  0.62916709  0.18926370    -0.08200
C3353       C  0.84287946  0.60739237  0.17619492    -0.02700
C3354       C  0.85537530  0.57487122  0.17439452     0.04100
N3355       N  0.84118608  0.55265780  0.16041008     0.66600
H3356       H  0.89108310  0.53886911  0.18491092     0.15500
H3357       H  0.84942754  0.65443397  0.19045110     0.15200
N3358       N  0.90085676  0.64152484  0.21411610     0.74300
O3359       O  0.85092543  0.55362529  0.14301296    -0.39100
O3360       O  0.81580958  0.53562244  0.16472738    -0.39100
O3361       O  0.92237688  0.66200263  0.20824952    -0.39800
O3362       O  0.88622941  0.64670156  0.23002798    -0.39800
C3363       C  0.63274864  0.61853328  0.20245641    -0.12100
C3364       C  0.60820803  0.59752184  0.19452789     0.04900
C3365       C  0.61033368  0.58802299  0.17487981    -0.07400
C3366       C  0.63898675  0.59658782  0.16429573    -0.08200
C3367       C  0.66411572  0.61703716  0.17224402    -0.02700
C3368       C  0.66002029  0.62922961  0.19130077     0.04100
N3369       N  0.68290038  0.65273313  0.19942332     0.66600
H3370       H  0.63125503  0.62585540  0.21757767     0.15500
H3371       H  0.64149045  0.58776248  0.14951584     0.15200
N3372       N  0.58362505  0.56991781  0.16553518     0.74300
O3373       O  0.70464639  0.64318638  0.21173617    -0.39100
O3374       O  0.67580269  0.68320062  0.19821832    -0.39100
O3375       O  0.55349349  0.57491829  0.17042614    -0.39800
O3376       O  0.58928539  0.55346181  0.15031897    -0.39800
C3377       C  0.56031410  0.63633354  0.68920937    -0.12100
C3378       C  0.58449085  0.61403892  0.69674648     0.04900
C3379       C  0.61887043  0.61978121  0.69326649    -0.07400
C3380       C  0.62828103  0.64631939  0.68136793    -0.08200
C3381       C  0.60387251  0.66734301  0.67311367    -0.02700
C3382       C  0.56981565  0.66294388  0.67754721     0.04100
N3383       N  0.54460554  0.68422369  0.66926880     0.66600
H3384       H  0.53378549  0.63236017  0.69180127     0.15500
H3385       H  0.65457040  0.64976815  0.67791742     0.15200
N3386       N  0.64424597  0.59742390  0.70022044     0.74300
O3387       O  0.53502761  0.67971934  0.65193567    -0.39100
O3388       O  0.53709730  0.71092027  0.67774732    -0.39100
O3389       O  0.65400751  0.57420415  0.68935342    -0.39800
O3390       O  0.66228277  0.60570898  0.71457932    -0.39800
C3391       C  0.62790763  0.85991996  0.67631761    -0.12100
C3392       C  0.60280429  0.83844384  0.66960528     0.04900
C3393       C  0.56918695  0.84385272  0.67498369    -0.07400
C3394       C  0.56088990  0.87170124  0.68598137    -0.08200
C3395       C  0.58569775  0.89415441  0.69200345    -0.02700
C3396       C  0.61967230  0.88756069  0.68764467     0.04100
N3397       N  0.64575703  0.90973988  0.69340188     0.66600
H3398       H  0.65386603  0.85565072  0.67229193     0.15500
H3399       H  0.53474053  0.87621471  0.68948353     0.15200
N3400       N  0.54309803  0.82197186  0.66877373     0.74300
O3401       O  0.66250142  0.90362353  0.70869077    -0.39100
O3402       O  0.65734275  0.92976894  0.68108098    -0.39100
O3403       O  0.53198583  0.80068920  0.68050877    -0.39800
O3404       O  0.52667337  0.82843830  0.65341948    -0.39800
C3405       C  0.94844101  0.63609185  0.68259172    -0.12100
C3406       C  0.92569180  0.61778829  0.69384779     0.04900
C3407       C  0.89194361  0.62898439  0.69503384    -0.07400
C3408       C  0.88132048  0.65667658  0.68413891    -0.08200
C3409       C  0.90380438  0.67343462  0.67212208    -0.02700
C3410       C  0.93773080  0.66370930  0.67186424     0.04100
N3411       N  0.96110828  0.68095338  0.65995506     0.66600
H3412       H  0.97456124  0.62845672  0.68167816     0.15500
H3413       H  0.85505507  0.66402982  0.68422293     0.15200
N3414       N  0.86749196  0.61122061  0.70589845     0.74300
O3415       O  0.46852616  0.70393616  0.66164403    -0.39100
O3416       O  0.96442102  0.67257289  0.64241363    -0.39100
O3417       O  0.85688940  0.62337918  0.72158665    -0.39800
O3418       O  0.85053947  0.58901104  0.69751598    -0.39800
C3419       C  0.92610198  0.85788256  0.66100375    -0.12100
C3420       C  0.89402063  0.84635079  0.66517221     0.04900
C3421       C  0.87545874  0.86141359  0.68012304    -0.07400
C3422       C  0.88994571  0.88717574  0.69106429    -0.08200
C3423       C  0.92267440  0.89835425  0.68713240    -0.02700
C3424       C  0.94045118  0.88355031  0.67161214     0.04100
N3425       N  0.97397529  0.89274525  0.66694064     0.66600
H3426       H  0.94051564  0.84632851  0.64952097     0.15500
H3427       H  0.87550837  0.89848267  0.70258703     0.15200
N3428       N  0.84189354  0.85126090  0.68411901     0.74300
O3429       O  0.99783590  0.87573558  0.67395125    -0.39100
O3430       O  0.97904344  0.90996324  0.65192651    -0.39100
O3431       O  0.83650675  0.83262827  0.69849792    -0.39800
O3432       O  0.81757145  0.86654688  0.67618896    -0.39800
C3433       C  0.81840197  0.62276453  0.56267642    -0.12100
C3434       C  0.84376159  0.60601134  0.55249945     0.04900
C3435       C  0.87655924  0.61927594  0.55245408    -0.07400
C3436       C  0.88364389  0.64767581  0.56352286    -0.08200
C3437       C  0.85844209  0.66304416  0.57452445    -0.02700
C3438       C  0.82545804  0.65080852  0.57366009     0.04100
N3439       N  0.79921890  0.66535532  0.58486224     0.66600
H3440       H  0.79288783  0.61341999  0.56270218     0.15500
H3441       H  0.90912627  0.65702455  0.56415095     0.15200
N3442       N  0.90336907  0.60312747  0.54249556     0.74300
O3443       O  0.77965256  0.68622343  0.57693550    -0.39100
O3444       O  0.79061954  0.65149424  0.60049511    -0.39100
O3445       O  0.91403262  0.61557095  0.52689587    -0.39800
O3446       O  0.92151964  0.58237864  0.55158018    -0.39800
C3447       C  0.87716749  0.88512034  0.55016079    -0.12100
C3448       C  0.84422398  0.88637323  0.54278654     0.04900
C3449       C  0.82220702  0.85991599  0.54631819    -0.07400
C3450       C  0.83217565  0.83419609  0.55865888    -0.08200
C3451       C  0.86412035  0.83419177  0.56737356    -0.02700
C3452       C  0.88730685  0.85912025  0.56247371     0.04100
N3453       N  0.92050087  0.85920237  0.57061985     0.66600
H3454       H  0.89421816  0.90545677  0.54750482     0.15500
H3455       H  0.81436688  0.81489479  0.56217564     0.15200
N3456       N  0.78916284  0.85948180  0.53799497     0.74300
O3457       O  0.92670803  0.87692777  0.58529311    -0.39100
O3458       O  0.94459310  0.84814802  0.56069146    -0.39100
O3459       O  0.78426428  0.84449429  0.52215312    -0.39800
O3460       O  0.76434645  0.86693931  0.54840662    -0.39800
C3461       C  0.70126700  0.61428950  0.57528883    -0.12100
C3462       C  0.68416032  0.60468412  0.55815709     0.04900
C3463       C  0.65598667  0.62371068  0.55187652    -0.07400
C3464       C  0.64555398  0.65131964  0.56265014    -0.08200
C3465       C  0.66264910  0.66042351  0.57965398    -0.02700
C3466       C  0.69075982  0.64190948  0.58596412     0.04100
N3467       N  0.70847784  0.65089783  0.60337354     0.66600
H3468       H  0.72296228  0.60035864  0.58048279     0.15500
H3469       H  0.62372942  0.66548991  0.55786848     0.15200
N3470       N  0.63746289  0.61542630  0.53470495     0.74300
O3471       O  0.70338158  0.63488905  0.61883847    -0.39100
O3472       O  0.72316111  0.67850003  0.60428892    -0.39100
O3473       O  0.61005167  0.60009192  0.53626290    -0.39800
O3474       O  0.64385286  0.63028432  0.51901796    -0.39800
C3475       C  0.70062334  0.88062592  0.57077288    -0.12100
C3476       C  0.68349667  0.88851936  0.55335973     0.04900
C3477       C  0.65629459  0.86842893  0.54738529    -0.07400
C3478       C  0.64665971  0.84148089  0.55900925    -0.08200
C3479       C  0.66378412  0.83429012  0.57646546    -0.02700
C3480       C  0.69122609  0.85382121  0.58217609     0.04100
N3481       N  0.70967614  0.84690944  0.59968357     0.66600
H3482       H  0.72158232  0.89545709  0.57580621     0.15500
H3483       H  0.62535832  0.82652564  0.55462732     0.15200
N3484       N  0.63793614  0.87513260  0.52984837     0.74300
O3485       O  0.73584651  0.82911245  0.59892605    -0.39100
O3486       O  0.70468504  0.86457577  0.61449970    -0.39100
O3487       O  0.64477696  0.85895296  0.51470489    -0.39800
O3488       O  0.61042191  0.89080493  0.53069557    -0.39800
C3489       C  0.59093156  0.60999236  0.32575118    -0.12100
C3490       C  0.60424607  0.60824135  0.30705352     0.04900
C3491       C  0.62533089  0.63398411  0.30061279    -0.07400
C3492       C  0.63268242  0.66082190  0.31291895    -0.05400
C3493       C  0.61842664  0.66304943  0.33145590    -0.02700
C3494       C  0.59731182  0.63717313  0.33780580     0.04100
N3495       N  0.58109588  0.63863990  0.35621538     0.66600
H3496       H  0.57408213  0.59081300  0.33070455     0.15500
H3497       H  0.64918495  0.68024073  0.30787594     0.15200
N3498       N  0.63822950  0.63401959  0.28132417     0.74300
O3499       O  0.59094495  0.61939295  0.36959414    -0.39100
O3500       O  0.55228386  0.65176776  0.35729713    -0.39100
O3501       O  0.62398368  0.65169076  0.26846766    -0.39800
O3502       O  0.66759125  0.62318801  0.27843044    -0.39800
C3503       C  0.59242332  0.86312963  0.33903780    -0.12100
C3504       C  0.61645442  0.84055900  0.33197732     0.04900
C3505       C  0.63170795  0.84746538  0.31395544    -0.07400
C3506       C  0.62203999  0.87583025  0.30322516    -0.08200
C3507       C  0.59757217  0.89795530  0.31018244    -0.02700
C3508       C  0.58290670  0.89145397  0.32837694     0.04100
N3509       N  0.55786166  0.91310098  0.33614071     0.66600
H3510       H  0.58077422  0.85857548  0.35296779     0.15500
H3511       H  0.63291473  0.88000239  0.28904790     0.15200
N3512       N  0.65708334  0.82608914  0.30634265     0.74300
O3513       O  0.52718175  0.90640037  0.33356635    -0.39100
O3514       O  0.56610882  0.93339481  0.34925133    -0.39100
O3515       O  0.64964945  0.80670733  0.29261272    -0.39800
O3516       O  0.68760327  0.83246686  0.30975790    -0.39800
C3517       C  0.68922100  0.66547811  0.43933201    -0.12100
C3518       C  0.65933210  0.66300352  0.42845766     0.04900
C3519       C  0.63838960  0.63530613  0.43132546    -0.07400
C3520       C  0.64789169  0.61045331  0.44460341    -0.08200
C3521       C  0.67825176  0.61251901  0.45494217    -0.02700
C3522       C  0.69883653  0.64047797  0.45241565     0.04100
N3523       N  0.73011075  0.64334162  0.46264495     0.66600
H3524       H  0.70561407  0.68653388  0.43725078     0.15500
H3525       H  0.63244103  0.58854567  0.44598076     0.15200
N3526       N  0.60825619  0.63114448  0.42020509     0.74300
O3527       O  0.75712318  0.63733290  0.45385076    -0.39100
O3528       O  0.73113068  0.65902585  0.47847828    -0.39100
O3529       O  0.60737577  0.60873215  0.40747428    -0.39800
O3530       O  0.58097067  0.64248839  0.42671481    -0.39800
C3531       C  0.69088057  0.83685647  0.43527903    -0.12100
C3532       C  0.65752977  0.83374801  0.42902414     0.04900
C3533       C  0.63314192  0.85663586  0.43531487    -0.07400
C3534       C  0.64290525  0.88370607  0.44682427    -0.08200
C3535       C  0.67686988  0.88805153  0.45203866    -0.02700
C3536       C  0.70071029  0.86369399  0.44671491     0.04100
N3537       N  0.73513185  0.86595459  0.45269232     0.66600
H3538       H  0.70961346  0.81899086  0.43063373     0.15500
H3539       H  0.62433148  0.90217359  0.45081738     0.15200
N3540       N  0.59876056  0.85315364  0.42943719     0.74300
O3541       O  0.74450074  0.85168888  0.46818803    -0.39100
O3542       O  0.75691249  0.87400078  0.44037449    -0.39100
O3543       O  0.58089847  0.83133239  0.43740002    -0.39800
O3544       O  0.58853001  0.86676235  0.41391287    -0.39800
C3545       C  0.90087319  0.61174030  0.31126935    -0.12100
C3546       C  0.93013010  0.59308489  0.31484140     0.04900
C3547       C  0.95149699  0.60219787  0.33031542    -0.07400
C3548       C  0.94539226  0.63150486  0.34065062    -0.08200
C3549       C  0.91620937  0.65067224  0.33709922    -0.02700
C3550       C  0.89318834  0.63967345  0.32266901     0.04100
N3551       N  0.86185605  0.65641994  0.31944739     0.66600
H3552       H  0.88446545  0.60523561  0.29921307     0.15500
H3553       H  0.96297309  0.63879019  0.35198007     0.15200
N3554       N  0.97872712  0.58087825  0.33610615     0.74300
O3555       O  0.85700358  0.67202841  0.30373367    -0.39100
O3556       O  0.83686444  0.64839719  0.32955239    -0.39100
O3557       O  0.50998358  0.60066802  0.32607617    -0.39800
O3558       O  0.97304004  0.55746433  0.34778878    -0.39800
C3559       C  0.96124948  0.85264641  0.30657810    -0.12100
C3560       C  0.93965471  0.88028636  0.30409182     0.04900
C3561       C  0.90863193  0.88009335  0.31391456    -0.07400
C3562       C  0.90060669  0.85335495  0.32625431    -0.08200
C3563       C  0.92310937  0.82662569  0.32933599    -0.02700
C3564       C  0.95371618  0.82650653  0.31920326     0.04100
N3565       N  0.97834527  0.80097505  0.32225920     0.66600
H3566       H  0.98503148  0.85152113  0.29905534     0.15500
H3567       H  0.87688338  0.85380552  0.33388014     0.15200
N3568       N  0.88469104  0.90628270  0.31133213     0.74300
O3569       O  0.98290928  0.77962273  0.30915838    -0.39100
O3570       O  0.00094414  0.80508338  0.33502442    -0.39100
O3571       O  0.86057458  0.90243915  0.29949824    -0.39800
O3572       O  0.88279328  0.92874852  0.32400359    -0.39800
C3573       C  0.86504490  0.66456151  0.44758045    -0.12100
C3574       C  0.85210479  0.66843908  0.42862652     0.04900
C3575       C  0.82838753  0.64572426  0.42147962    -0.07400
C3576       C  0.81996370  0.61836904  0.43262427    -0.08200
C3577       C  0.83358536  0.61343894  0.45135991    -0.02700
C3578       C  0.85560939  0.63743307  0.45912246     0.04100
N3579       N  0.86804795  0.63511562  0.47862855     0.66600
H3580       H  0.88312575  0.68217585  0.45321369     0.15500
H3581       H  0.80242282  0.60082312  0.42637346     0.15200
N3582       N  0.81314465  0.64971509  0.40268211     0.74300
O3583       O  0.89643324  0.62191317  0.48180273    -0.39100
O3584       O  0.85510295  0.65316649  0.49154838    -0.39100
O3585       O  0.82150066  0.63046244  0.38910498    -0.39800
O3586       O  0.78614383  0.66615971  0.40110851    -0.39800
C3587       C  0.84289034  0.86417762  0.41278754    -0.12100
C3588       C  0.86485398  0.84200643  0.42226387     0.04900
C3589       C  0.87496239  0.84874013  0.44161030    -0.07400
C3590       C  0.86268587  0.87710493  0.45105205    -0.08200
C3591       C  0.84048279  0.89917340  0.44156972    -0.02700
C3592       C  0.83099469  0.89266096  0.42206733     0.04100
N3593       N  0.81073400  0.91547334  0.41105058     0.66600
H3594       H  0.83525177  0.85952410  0.39787072     0.15500
H3595       H  0.87036118  0.88167910  0.46596262     0.15200
N3596       N  0.89816589  0.82757116  0.45175888     0.74300
O3597       O  0.82483228  0.93905563  0.40230088    -0.39100
O3598       O  0.78120960  0.90749282  0.40614335    -0.39100
O3599       O  0.92860182  0.83606197  0.45301475    -0.39800
O3600       O  0.88704105  0.80658739  0.46367359    -0.39800
loop_ 
_geom_bond_atom_site_label_1 
_geom_bond_atom_site_label_2 
_geom_bond_distance 
_geom_bond_site_symmetry_2 
_ccdc_geom_bond_type 
N1            C6   1.354       .  A
N1            C5   1.350       .  A
N1           H33   1.054       .  S
N2            C9   1.355       .  A
N2           C10   1.359       .  A
N3            C8   1.349       .  A
N3            C7   1.355       .  A
N3           H34   1.054       .  S
N4           C11   1.352       .  A
N4           C12   1.348       .  A
C5           C13   1.390       .  A
C5           C21   1.420       .  A
C6           C22   1.416       .  A
C6           C14   1.385       .  A
C7           C15   1.390       .  A
C7           C24   1.423       .  A
C8           C23   1.416       .  A
C8           C16   1.386       .  A
C9           C21   1.425       .  A
C9           C17   1.386       .  A
C10          C24   1.428       .  A
C10          C18   1.386       .  A
C11          C19   1.385       .  A
C11          C22   1.410       .  A
C12          C20   1.387       .  A
C12          C23   1.408       .  A
C13          C14   1.374       .  A
C13          H25   1.082       .  S
C14          H26   1.082       .  S
C15          C16   1.369       .  A
C15          H27   1.079       .  S
C16          H28   1.082       .  S
C17          C18   1.379       .  A
C17          H29   1.082       .  S
C18          H30   1.082       .  S
C19          C20   1.372       .  A
C19          H31   1.082       .  S
C20          H32   1.083       .  S
C21         C863   1.493       .  S
C22         C888   1.492       .  S
C23         C874   1.476       .  S
C24         C849   1.510       .  S
N35          C40   1.356       .  A
N35          C39   1.352       .  A
N35          H67   1.040       .  S
N36          C43   1.354       .  A
N36          C44   1.357       .  A
N37          C42   1.353       .  A
N37          C41   1.355       .  A
N37          H68   1.039       .  S
N38          C45   1.351       .  A
N38          C46   1.348       .  A
C39          C47   1.388       .  A
C39          C55   1.414       .  A
C40          C56   1.416       .  A
C40          C48   1.385       .  A
C41          C49   1.385       .  A
C41          C58   1.414       .  A
C42          C57   1.417       .  A
C42          C50   1.389       .  A
C43          C55   1.421       .  A
C43          C51   1.387       .  A
C44          C58   1.419       .  A
C44          C52   1.385       .  A
C45          C53   1.386       .  A
C45          C56   1.412       .  A
C46          C54   1.386       .  A
C46          C57   1.410       .  A
C47          C48   1.372       .  A
C47          H59   1.080       .  S
C48          H60   1.082       .  S
C49          C50   1.375       .  A
C49          H61   1.083       .  S
C50          H62   1.082       .  S
C51          C52   1.379       .  A
C51          H63   1.082       .  S
C52          H64   1.082       .  S
C53          C54   1.374       .  A
C53          H65   1.082       .  S
C54          H66   1.082       .  S
C55         C793   1.490       .  S
C56         C818   1.496       .  S
C57         C832   1.482       .  S
C58         C804   1.500       .  S
N69          N70   1.325       .  A
N69          N75   1.314       .  A
N69        Mn998   2.228       .  S
N70          C77   1.360       .  A
N71          N73   1.315       .  A
N71          N72   1.312       .  A
N71         Mn87   2.187       .  S
N72          C78   1.349       .  A
N73          N74   1.325       .  A
N73         Mn98   2.202       .  S
N74          C78   1.356       .  A
N75          N76   1.317       .  A
N75        Mn987   2.177       .  S
N76          C77   1.348       .  A
C77         C891   1.487       .  S
C78         C877   1.477       .  S
N79          N85   1.314       .  A
N79          N80   1.326       .  A
N79        Mn109   2.218       .  S
N80          C88   1.357       .  A
N81          N82   1.318       .  A
N81          N83   1.316       .  A
N81        Mn987   2.191       .  S
N82          C89   1.348       .  A
N83          N84   1.326       .  A
N83       Mn1009   2.222       .  S
N84          C89   1.356       .  A
N85          N86   1.318       .  A
N85         Mn87   2.188       .  S
N86          C88   1.348       .  A
Mn87        N975   2.177   1_545  S
Mn87        N981   2.203   1_545  S
Mn87       Cl111   2.509       .  S
C88         C821   1.473       .  S
C89         C835   1.474       .  S
N90          N91   1.330       .  A
N90          N96   1.314       .  A
N90         Mn98   2.227       .  S
N91          C99   1.360       .  A
N92          N94   1.316       .  A
N92          N93   1.317       .  A
N92       Mn1010   2.188       .  S
N93         C100   1.348       .  A
N94          N95   1.324       .  A
N94        Mn998   2.219       .  S
N95         C100   1.357       .  A
N96          N97   1.315       .  A
N96        Mn110   2.192       .  S
N97          C99   1.350       .  A
Mn98        N969   2.234   1_545  S
Mn98        N994   2.207   1_545  S
Mn98       Cl111   2.586       .  S
C99         C734   1.488       .  S
C100        C748   1.472       .  S
N101        N102   1.328       .  A
N101        N107   1.312       .  A
N101      Mn1009   2.207       .  S
N102        C112   1.359       .  A
N103        N104   1.316       .  A
N103        N105   1.316       .  A
N103       Mn110   2.193       .  S
N104        C113   1.351       .  A
N105        N106   1.323       .  A
N105       Mn109   2.215       .  S
N106        C113   1.357       .  A
N107        N108   1.310       .  A
N107      Mn1010   2.177       .  S
N108        C112   1.348       .  A
Mn109       N983   2.222   1_545  S
Mn109      N1001   2.224   1_545  S
Mn109      Cl111   2.586       .  S
Mn110       N992   2.196   1_545  S
Mn110      N1007   2.181   1_545  S
Mn110      Cl111   2.506       .  S
C112        C776   1.481       .  S
C113        C762   1.483       .  S
N114        C119   1.354       .  A
N114        C118   1.354       .  A
N114        H146   1.038       .  S
N115        C122   1.353       .  A
N115        C123   1.350       .  A
N116        C121   1.357       .  A
N116        C120   1.352       .  A
N116        H147   1.037       .  S
N117        C124   1.349       .  A
N117        C125   1.351       .  A
C118        C126   1.385       .  A
C118        C134   1.414       .  A
C119        C135   1.419       .  A
C119        C127   1.389       .  A
C120        C128   1.387       .  A
C120        C137   1.415       .  A
C121        C136   1.421       .  A
C121        C129   1.388       .  A
C122        C134   1.411       .  A
C122        C130   1.385       .  A
C123        C137   1.412       .  A
C123        C131   1.387       .  A
C124        C132   1.387       .  A
C124        C135   1.413       .  A
C125        C133   1.385       .  A
C125        C136   1.413       .  A
C126        C127   1.375       .  A
C126        H138   1.083       .  S
C127        H139   1.082       .  S
C128        C129   1.375       .  A
C128        H140   1.082       .  S
C129        H141   1.082       .  S
C130        C131   1.373       .  A
C130        H142   1.082       .  S
C131        H143   1.082       .  S
C132        C133   1.376       .  A
C132        H144   1.082       .  S
C133        H145   1.082       .  S
C134        C720   1.492       .  S
C135        C751   1.483       .  S
C136        C737   1.494       .  S
C137        C709   1.479       .  S
N148        C153   1.350       .  A
N148        C152   1.351       .  A
N148        H180   1.040       .  S
N149        C156   1.345       .  A
N149        C157   1.345       .  A
N150        C155   1.350       .  A
N150        C154   1.351       .  A
N150        H181   1.039       .  S
N151        C158   1.347       .  A
N151        C159   1.348       .  A
C152        C160   1.388       .  A
C152        C168   1.412       .  A
C153        C169   1.409       .  A
C153        C161   1.386       .  A
C154        C162   1.388       .  A
C154        C171   1.413       .  A
C155        C170   1.409       .  A
C155        C163   1.386       .  A
C156        C168   1.403       .  A
C156        C164   1.386       .  A
C157        C171   1.405       .  A
C157        C165   1.386       .  A
C158        C166   1.386       .  A
C158        C169   1.405       .  A
C159        C167   1.386       .  A
C159        C170   1.406       .  A
C160        C161   1.376       .  A
C160        H172   1.082       .  S
C161        H173   1.082       .  S
C162        C163   1.376       .  A
C162        H174   1.082       .  S
C163        H175   1.082       .  S
C164        C165   1.375       .  A
C164        H176   1.082       .  S
C165        H177   1.082       .  S
C166        C167   1.374       .  A
C166        H178   1.082       .  S
C167        H179   1.082       .  S
C168        C681   1.475       .  S
C169        C765   1.475       .  S
C170        C779   1.478       .  S
C171        C692   1.478       .  S
N182        N183   1.314       .  A
N182        N188   1.317       .  A
N182      Mn2011   2.192       .  S
N183        C190   1.345       .  A
N184        N186   1.318       .  A
N184        N185   1.316       .  A
N184       Mn200   2.192       .  S
N185        C191   1.344       .  A
N186        N187   1.330       .  A
N186      Mn2011   2.240       .  S
N187        C191   1.362       .  A
N188        N189   1.331       .  A
N188       Mn200   2.238       .  S
N189        C190   1.364       .  A
C190        C860   1.490       .  S
C191        C622   1.479       .  S
N192        N198   1.317       .  A
N192        N193   1.328       .  A
N192      Mn2022   2.221       .  S
N193        C201   1.360       .  A
N194        N195   1.331       .  A
N194        N196   1.318       .  A
N194      Mn1100   2.241       .  S
N195        C202   1.363       .  A
N196        N197   1.312       .  A
N196      Mn2022   2.178       .  S
N197        C202   1.341       .  A
N198        N199   1.314       .  A
N198      Mn1100   2.189       .  S
N199        C201   1.344       .  A
Mn200      N1094   2.244       .  S
Mn200      N1098   2.175       .  S
Mn200     Cl2024   2.561       .  S
C201        C650   1.472       .  S
C202        C846   1.476       .  S
N203        N204   1.329       .  A
N203        N209   1.314       .  A
N203       Mn211   2.233       .  S
N204        C212   1.365       .  A
N205        N207   1.319       .  A
N205        N206   1.331       .  A
N205       Mn223   2.253       .  S
N206        C213   1.364       .  A
N207        N208   1.317       .  A
N207       Mn211   2.196       .  S
N208        C213   1.344       .  A
N209        N210   1.312       .  A
N209       Mn223   2.170       .  S
N210        C212   1.342       .  A
Mn211      N1982   2.175   1_455  S
Mn211      N1986   2.246   1_455  S
Mn211      Cl224   2.545       .  S
C212        C636   1.481       .  S
C213        C807   1.484       .  S
N214        N215   1.307       .  A
N214        N220   1.315       .  A
N214       Mn222   2.162       .  S
N215        C225   1.339       .  A
N216        N217   1.312       .  A
N216        N218   1.317       .  A
N216      Mn1123   2.172       .  S
N217        C226   1.339       .  A
N218        N219   1.331       .  A
N218       Mn222   2.244       .  S
N219        C226   1.365       .  A
N220        N221   1.335       .  A
N220      Mn1123   2.240       .  S
N221        C225   1.368       .  A
Mn222      N1992   2.232   1_455  S
Mn222      N1996   2.169   1_455  S
Mn222     Cl1124   2.533       .  S
Mn223      N1116   2.176       .  S
Mn223      N1120   2.229       .  S
Mn223      Cl224   2.555       .  S
Cl224     Mn2000   2.558   1_455  S
Cl224     Mn1122   2.539       .  S
C225        C790   1.488       .  S
C226        C664   1.473       .  S
N227        N228   1.327       .  A
N227        N233   1.316       .  A
N227      Mn2056   2.224   1_556  S
N228        C235   1.358       .  A
N229        N231   1.315       .  A
N229        N230   1.321       .  A
N229       Mn245   2.208       .  S
N230        C236   1.354       .  A
N231        N232   1.321       .  A
N231       Mn256   2.200   1_556  S
N232        C236   1.352       .  A
N233        N234   1.317       .  A
N233      Mn2045   2.196       .  S
N234        C235   1.349       .  A
C235        C611   1.479       .  S
C236        C594   1.471       .  S
N237        N243   1.315       .  A
N237        N238   1.320       .  A
N237       Mn267   2.187       .  S
N238        C246   1.350       .  A
N239        N240   1.322       .  A
N239        N241   1.316       .  A
N239      Mn2045   2.207       .  S
N240        C247   1.354       .  A
N241        N242   1.324       .  A
N241      Mn2067   2.226       .  S
N242        C247   1.357       .  A
N243        N244   1.318       .  A
N243       Mn245   2.201       .  S
N244        C246   1.352       .  A
Mn245      N2033   2.206   1_455  S
Mn245      N2039   2.201   1_455  S
Mn245      Cl269   2.522       .  S
C246        C566   1.467       .  S
C247        C580   1.489       .  S
N248        N249   1.326       .  A
N248        N254   1.316       .  A
N248       Mn256   2.224       .  S
N249        C257   1.358       .  A
N250        N252   1.317       .  A
N250        N251   1.319       .  A
N250      Mn2068   2.209       .  S
N251        C258   1.352       .  A
N252        N253   1.325       .  A
N252      Mn2056   2.217       .  S
N253        C258   1.357       .  A
N254        N255   1.317       .  A
N254       Mn268   2.195       .  S
N255        C257   1.351       .  A
Mn256      N2027   2.236   1_454  S
Mn256      N2052   2.220   1_455  S
Mn256      Cl269   2.584   1_554  S
C257        C513   1.486       .  S
C258        C527   1.484       .  S
N259        N260   1.326       .  A
N259        N265   1.315       .  A
N259      Mn2067   2.198   1_554  S
N260        C270   1.356       .  A
N261        N262   1.317       .  A
N261        N263   1.315       .  A
N261       Mn268   2.203       .  S
N262        C271   1.353       .  A
N263        N264   1.327       .  A
N263       Mn267   2.221   1_554  S
N264        C271   1.359       .  A
N265        N266   1.312       .  A
N265      Mn2068   2.193       .  S
N266        C270   1.350       .  A
Mn267      N2041   2.217   1_455  S
Mn267      N2059   2.197   1_456  S
Mn267      Cl269   2.578       .  S
Mn268      N2050   2.198   1_455  S
Mn268      N2065   2.186   1_455  S
Mn268      Cl269   2.513   1_554  S
C270        C552   1.479       .  S
C271        C538   1.494       .  S
N272        C277   1.353       .  A
N272        C276   1.356       .  A
N272        H304   1.038       .  S
N273        C280   1.352       .  A
N273        C281   1.351       .  A
N274        C279   1.354       .  A
N274        C278   1.353       .  A
N274        H305   1.040       .  S
N275        C282   1.352       .  A
N275        C283   1.353       .  A
C276        C284   1.388       .  A
C276        C292   1.419       .  A
C277        C293   1.415       .  A
C277        C285   1.387       .  A
C278        C286   1.389       .  A
C278        C295   1.416       .  A
C279        C294   1.411       .  A
C279        C287   1.385       .  A
C280        C292   1.414       .  A
C280        C288   1.385       .  A
C281        C295   1.415       .  A
C281        C289   1.387       .  A
C282        C290   1.386       .  A
C282        C293   1.415       .  A
C283        C291   1.386       .  A
C283        C294   1.414       .  A
C284        C285   1.372       .  A
C284        H296   1.082       .  S
C285        H297   1.083       .  S
C286        C287   1.372       .  A
C286        H298   1.082       .  S
C287        H299   1.082       .  S
C288        C289   1.376       .  A
C288        H300   1.082       .  S
C289        H301   1.082       .  S
C290        C291   1.376       .  A
C290        H302   1.082       .  S
C291        H303   1.082       .  S
C292        C583   1.492       .  S
C293        C496   1.486       .  S
C294        C482   1.494       .  S
C295        C569   1.486       .  S
N306        C311   1.354       .  A
N306        C310   1.356       .  A
N306        H338   1.041       .  S
N307        C314   1.349       .  A
N307        C315   1.348       .  A
N308        C313   1.352       .  A
N308        C312   1.353       .  A
N308        H339   1.041       .  S
N309        C316   1.353       .  A
N309        C317   1.356       .  A
C310        C318   1.387       .  A
C310        C326   1.418       .  A
C311        C327   1.417       .  A
C311        C319   1.387       .  A
C312        C320   1.388       .  A
C312        C329   1.414       .  A
C313        C328   1.412       .  A
C313        C321   1.386       .  A
C314        C326   1.411       .  A
C314        C322   1.387       .  A
C315        C329   1.407       .  A
C315        C323   1.385       .  A
C316        C324   1.387       .  A
C316        C327   1.418       .  A
C317        C325   1.385       .  A
C317        C328   1.418       .  A
C318        C319   1.375       .  A
C318        H330   1.082       .  S
C319        H331   1.082       .  S
C320        C321   1.376       .  A
C320        H332   1.082       .  S
C321        H333   1.082       .  S
C322        C323   1.374       .  A
C322        H334   1.082       .  S
C323        H335   1.082       .  S
C324        C325   1.378       .  A
C324        H336   1.082       .  S
C325        H337   1.082       .  S
C326        C597   1.491       .  S
C327        C454   1.497       .  S
C328        C471   1.501       .  S
C329        C608   1.482       .  S
N340        N341   1.323       .  A
N340        N346   1.315       .  A
N340       Mn369   2.208       .  S
N341        C348   1.354       .  A
N342        N344   1.313       .  A
N342        N343   1.314       .  A
N342      Mn1258   2.177       .  S
N343        C349   1.347       .  A
N344        N345   1.325       .  A
N344      Mn1269   2.212       .  S
N345        C349   1.357       .  A
N346        N347   1.316       .  A
N346       Mn358   2.178       .  S
N347        C348   1.346       .  A
C348        C695   1.462       .  S
C349        C678   1.471       .  S
N350        N356   1.313       .  A
N350        N351   1.327       .  A
N350      Mn1280   2.218       .  S
N351        C359   1.359       .  A
N352        N353   1.316       .  A
N352        N354   1.313       .  A
N352      Mn2158   2.179       .  S
N353        C360   1.349       .  A
N354        N355   1.327       .  A
N354       Mn380   2.226       .  S
N355        C360   1.360       .  A
N356        N357   1.313       .  A
N356      Mn3058   2.175       .  S
N357        C359   1.348       .  A
Mn358      N1242   2.161       .  S
Mn358      N2152   2.166   1_455  S
Mn358      N3056   2.191   1_455  S
Mn358      Cl382   2.527       .  S
C359        C706   1.482       .  S
C360        C723   1.491       .  S
N361        N362   1.320       .  A
N361        N367   1.318       .  A
N361      Mn1269   2.212       .  S
N362        C370   1.354       .  A
N363        N365   1.317       .  A
N363        N364   1.322       .  A
N363       Mn381   2.223       .  S
N364        C371   1.358       .  A
N365        N366   1.322       .  A
N365       Mn369   2.208       .  S
N366        C371   1.354       .  A
N367        N368   1.321       .  A
N367      Mn1281   2.203   1_545  S
N368        C370   1.353       .  A
Mn369      N1244   2.216       .  S
Mn369      N1261   2.206       .  S
Mn369      Cl382   2.558       .  S
C370        C457   1.483       .  S
C371        C485   1.484       .  S
N372        N373   1.318       .  A
N372        N378   1.318       .  A
N372       Mn380   2.197       .  S
N373        C383   1.350       .  A
N374        N375   1.324       .  A
N374        N376   1.319       .  A
N374      Mn3081   2.243       .  S
N375        C384   1.360       .  A
N376        N377   1.322       .  A
N376      Mn1280   2.210       .  S
N377        C384   1.353       .  A
N378        N379   1.321       .  A
N378      Mn2181   2.217       .  S
N379        C383   1.355       .  A
Mn380      N1250   2.222       .  S
Mn380      N1276   2.205       .  S
Mn380     Cl2182   2.555       .  S
Mn381      N1267   2.219       .  S
Mn381      N3074   2.221   1_455  S
Mn381      N2178   2.214   1_455  S
Mn381      Cl382   2.539       .  S
Cl382     Mn2180   2.555   1_455  S
C383        C499   1.472       .  S
C384        C468   1.493       .  S
N385        C390   1.348       .  A
N385        C389   1.352       .  A
N385        H417   1.037       .  S
N386        C393   1.352       .  A
N386        C394   1.347       .  A
N387        C392   1.357       .  A
N387        C391   1.354       .  A
N387        H418   1.041       .  S
N388        C395   1.353       .  A
N388        C396   1.354       .  A
C389        C397   1.386       .  A
C389        C405   1.410       .  A
C390        C406   1.410       .  A
C390        C398   1.388       .  A
C391        C399   1.387       .  A
C391        C408   1.419       .  A
C392        C407   1.421       .  A
C392        C400   1.386       .  A
C393        C405   1.411       .  A
C393        C401   1.385       .  A
C394        C408   1.410       .  A
C394        C402   1.388       .  A
C395        C403   1.387       .  A
C395        C406   1.416       .  A
C396        C404   1.386       .  A
C396        C407   1.416       .  A
C397        C398   1.376       .  A
C397        H409   1.082       .  S
C398        H410   1.082       .  S
C399        C400   1.382       .  A
C399        H411   1.082       .  S
C400        H412   1.082       .  S
C401        C402   1.370       .  A
C401        H413   1.082       .  S
C402        H414   1.082       .  S
C403        C404   1.368       .  A
C403        H415   1.082       .  S
C404        H416   1.082       .  S
C405        C524   1.484       .  S
C406        C510   1.477       .  S
C407        C667   1.506       .  S
C408        C653   1.481       .  S
N419        C424   1.361       .  A
N419        C423   1.358       .  A
N419        H451   1.038       .  S
N420        C427   1.350       .  A
N420        C428   1.353       .  A
N421        C426   1.351       .  A
N421        C425   1.355       .  A
N421        H452   1.040       .  S
N422        C429   1.357       .  A
N422        C430   1.355       .  A
C423        C431   1.387       .  A
C423        C439   1.425       .  A
C424        C440   1.427       .  A
C424        C432   1.387       .  A
C425        C433   1.385       .  A
C425        C442   1.410       .  A
C426        C441   1.412       .  A
C426        C434   1.389       .  A
C427        C439   1.415       .  A
C427        C435   1.390       .  A
C428        C442   1.409       .  A
C428        C436   1.384       .  A
C429        C437   1.388       .  A
C429        C440   1.425       .  A
C430        C438   1.386       .  A
C430        C441   1.419       .  A
C431        C432   1.376       .  A
C431        H443   1.082       .  S
C432        H444   1.082       .  S
C433        C434   1.370       .  A
C433        H445   1.082       .  S
C434        H446   1.082       .  S
C435        C436   1.365       .  A
C435        H447   1.082       .  S
C436        H448   1.083       .  S
C437        C438   1.365       .  A
C437        H449   1.081       .  S
C438        H450   1.082       .  S
C439        C639   1.489       .  S
C440        C625   1.512       .  S
C441        C555   1.483       .  S
C442        C541   1.487       .  S
C453        C454   1.405       .  A
C453        C458   1.400       .  A
C453        H460   1.084       .  S
C454        C455   1.412       .  A
C455        C456   1.402       .  A
C455        N462   1.428       .  S
C456        C457   1.403       .  A
C456        H461   1.084       .  S
C457        C458   1.415       .  A
C458        N459   1.429       .  S
N459        O463   1.262       .  A
N459        O464   1.262       .  A
N462        O466   1.262       .  A
N462        O465   1.262       .  A
C467        C468   1.403       .  A
C467        C472   1.402       .  A
C467        H474   1.082       .  S
C468        C469   1.416       .  A
C469        C470   1.408       .  A
C469        N476   1.428       .  S
C470        C471   1.404       .  A
C470        H475   1.084       .  S
C471        C472   1.414       .  A
C472        N473   1.430       .  S
N473        O477   1.262       .  A
N473        O478   1.262       .  A
N476        O480   1.262       .  A
N476        O479   1.262       .  A
C481        C482   1.404       .  A
C481        C486   1.405       .  A
C481        H488   1.084       .  S
C482        C483   1.411       .  A
C483        C484   1.399       .  A
C483        N490   1.429       .  S
C484        C485   1.403       .  A
C484        H489   1.082       .  S
C485        C486   1.412       .  A
C486        N487   1.428       .  S
N487        O491   1.262       .  A
N487        O492   1.262       .  A
N490        O494   1.262       .  A
N490        O493   1.262       .  A
C495        C496   1.400       .  A
C495        C500   1.395       .  A
C495        H502   1.084       .  S
C496        C497   1.411       .  A
C497        C498   1.403       .  A
C497        N504   1.428       .  S
C498        C499   1.402       .  A
C498        H503   1.084       .  S
C499        C500   1.410       .  A
C500        N501   1.427       .  S
N501        O505   1.261       .  A
N501        O506   1.262       .  A
N504        O508   1.262       .  A
N504        O507   1.262       .  A
C509        C510   1.391       .  A
C509        C514   1.391       .  A
C509        H516   1.085       .  S
C510        C511   1.406       .  A
C511        C512   1.407       .  A
C511        N518   1.428       .  S
C512        C513   1.409       .  A
C512        H517   1.083       .  S
C513        C514   1.415       .  A
C514        N515   1.422       .  S
N515        O519   1.261       .  A
N515        O520   1.262       .  A
N518        O522   1.262       .  A
N518        O521   1.262       .  A
C523        C524   1.400       .  A
C523        C528   1.404       .  A
C523        H530   1.084       .  S
C524        C525   1.404       .  A
C525        C526   1.399       .  A
C525        N532   1.428       .  S
C526        C527   1.407       .  A
C526        H531   1.084       .  S
C527        C528   1.415       .  A
C528        N529   1.428       .  S
N529        O533   1.262       .  A
N529        O534   1.262       .  A
N532        O536   1.262       .  A
N532        O535   1.262       .  A
C537        C538   1.405       .  A
C537        C542   1.394       .  A
C537        H544   1.075       .  S
C538        C539   1.417       .  A
C539        C540   1.408       .  A
C539        N546   1.427       .  S
C540        C541   1.402       .  A
C540        H545   1.083       .  S
C541        C542   1.402       .  A
C542        N543   1.431       .  S
N543        O547   1.262       .  A
N543        O548   1.262       .  A
N546        O550   1.262       .  A
N546        O549   1.262       .  A
C551        C552   1.404       .  A
C551        C556   1.386       .  A
C551        H558   1.084       .  S
C552        C553   1.416       .  A
C553        C554   1.407       .  A
C553        N560   1.429       .  S
C554        C555   1.403       .  A
C554        H559   1.084       .  S
C555        C556   1.401       .  A
C556        N557   1.427       .  S
N557        O561   1.261       .  A
N557        O562   1.262       .  A
N560        O564   1.262       .  A
N560        O563   1.262       .  A
C565        C566   1.399       .  A
C565        C570   1.401       .  A
C565        H572   1.084       .  S
C566        C567   1.404       .  A
C567        C568   1.396       .  A
C567        N574   1.426       .  S
C568        C569   1.402       .  A
C568        H573   1.084       .  S
C569        C570   1.414       .  A
C570        N571   1.429       .  S
N571        O575   1.262       .  A
N571        O576   1.262       .  A
N574        O578   1.262       .  A
N574        O577   1.262       .  A
C579        C580   1.406       .  A
C579        C584   1.407       .  A
C579        H586   1.083       .  S
C580        C581   1.413       .  A
C581        C582   1.398       .  A
C581        N588   1.425       .  S
C582        C583   1.398       .  A
C582        H587   1.084       .  S
C583        C584   1.410       .  A
C584        N585   1.427       .  S
N585        O589   1.262       .  A
N585        O590   1.262       .  A
N588        O592   1.262       .  A
N588        O591   1.262       .  A
C593        C594   1.400       .  A
C593        C598   1.400       .  A
C593        H600   1.084       .  S
C594        C595   1.413       .  A
C595        C596   1.403       .  A
C595        N602   1.440       .  S
C596        C597   1.403       .  A
C596        H601   1.083       .  S
C597        C598   1.410       .  A
C598        N599   1.428       .  S
N599        O603   1.261       .  A
N599        O604   1.262       .  A
N602        O606   1.263       .  A
N602        O605   1.263       .  A
C607        C608   1.402       .  A
C607        C612   1.404       .  A
C607        H614   1.084       .  S
C608        C609   1.404       .  A
C609        C610   1.397       .  A
C609        N616   1.430       .  S
C610        C611   1.402       .  A
C610        H615   1.077       .  S
C611        C612   1.411       .  A
C612        N613   1.427       .  S
N613        O617   1.262       .  A
N613        O618   1.262       .  A
N616        O620   1.262       .  A
N616        O619   1.262       .  A
C621        C622   1.404       .  A
C621        C626   1.409       .  A
C621        H628   1.084       .  S
C622        C623   1.406       .  A
C623        C624   1.401       .  A
C623        N630   1.428       .  S
C624        C625   1.408       .  A
C624        H629   1.084       .  S
C625        C626   1.418       .  A
C626        N627   1.430       .  S
N627        O631   1.262       .  A
N627        O632   1.262       .  A
N630        O634   1.260       .  A
N630        O633   1.262       .  A
C635        C636   1.402       .  A
C635        C640   1.406       .  A
C635        H642   1.083       .  S
C636        C637   1.416       .  A
C637        C638   1.395       .  A
C637        N644   1.428       .  S
C638        C639   1.395       .  A
C638        H643   1.084       .  S
C639        C640   1.413       .  A
C640        N641   1.427       .  S
N641        O645   1.262       .  A
N641        O646   1.262       .  A
N644        O648   1.261       .  A
N644        O647   1.262       .  A
C649        C650   1.403       .  A
C649        C654   1.399       .  A
C649        H656   1.084       .  S
C650        C651   1.410       .  A
C651        C652   1.403       .  A
C651        N658   1.427       .  S
C652        C653   1.400       .  A
C652        H657   1.084       .  S
C653        C654   1.407       .  A
C654        N655   1.431       .  S
N655        O659   1.262       .  A
N655        O660   1.262       .  A
N658        O662   1.262       .  A
N658        O661   1.262       .  A
C663        C664   1.405       .  A
C663        C668   1.408       .  A
C663        H670   1.084       .  S
C664        C665   1.405       .  A
C665        C666   1.400       .  A
C665        N672   1.429       .  S
C666        C667   1.409       .  A
C666        H671   1.084       .  S
C667        C668   1.416       .  A
C668        N669   1.430       .  S
N669        O673   1.262       .  A
N669        O674   1.262       .  A
N672        O676   1.261       .  A
N672        O675   1.261       .  A
C677        C678   1.405       .  A
C677        C682   1.395       .  A
C677        H684   1.084       .  S
C678        C679   1.410       .  A
C679        C680   1.400       .  A
C679        N686   1.427       .  S
C680        C681   1.399       .  A
C680        H685   1.084       .  S
C681        C682   1.404       .  A
C682        N683   1.429       .  S
N683        O687   1.262       .  A
N683        O688   1.262       .  A
N686        O690   1.262       .  A
N686        O689   1.262       .  A
C691        C692   1.401       .  A
C691        C696   1.395       .  A
C691        H698   1.084       .  S
C692        C693   1.409       .  A
C693        C694   1.399       .  A
C693        N700   1.430       .  S
C694        C695   1.402       .  A
C694        H699   1.084       .  S
C695        C696   1.405       .  A
C696        N697   1.428       .  S
N697        O701   1.261       .  A
N697        O702   1.262       .  A
N700        O704   1.262       .  A
N700        O703   1.262       .  A
C705        C706   1.408       .  A
C705        C710   1.393       .  A
C705        H712   1.084       .  S
C706        C707   1.414       .  A
C707        C708   1.405       .  A
C707        N714   1.427       .  S
C708        C709   1.401       .  A
C708        H713   1.084       .  S
C709        C710   1.402       .  A
C710        N711   1.430       .  S
N711       O2515   1.262       .  A
N711        O716   1.262       .  A
N714        O718   1.262       .  A
N714        O717   1.262       .  A
O715       N2511   1.262       .  A
C719        C720   1.398       .  A
C719        C724   1.392       .  A
C719        H726   1.085       .  S
C720        C721   1.413       .  A
C721        C722   1.409       .  A
C721        N728   1.429       .  S
C722        C723   1.409       .  A
C722        H727   1.083       .  S
C723        C724   1.417       .  A
C724        N725   1.428       .  S
N725        O729   1.262       .  A
N725        O730   1.262       .  A
N728        O732   1.262       .  A
N728        O731   1.262       .  A
C733        C734   1.404       .  A
C733        C738   1.396       .  A
C733        H740   1.084       .  S
C734        C735   1.414       .  A
C735        C736   1.411       .  A
C735        N742   1.428       .  S
C736        C737   1.406       .  A
C736        H741   1.083       .  S
C737        C738   1.406       .  A
C738        N739   1.427       .  S
N739        O743   1.262       .  A
N739        O744   1.261       .  A
N742        O746   1.262       .  A
N742        O745   1.262       .  A
C747        C748   1.402       .  A
C747        C752   1.403       .  A
C747        H754   1.084       .  S
C748        C749   1.411       .  A
C749        C750   1.395       .  A
C749        N756   1.428       .  S
C750        C751   1.398       .  A
C750        H755   1.084       .  S
C751        C752   1.410       .  A
C752        N753   1.428       .  S
N753        O757   1.262       .  A
N753        O758   1.262       .  A
N756        O760   1.261       .  A
N756        O759   1.262       .  A
C761        C762   1.409       .  A
C761        C766   1.394       .  A
C761        H768   1.083       .  S
C762        C763   1.416       .  A
C763        C764   1.401       .  A
C763        N770   1.428       .  S
C764        C765   1.398       .  A
C764        H769   1.084       .  S
C765        C766   1.403       .  A
C766        N767   1.431       .  S
N767        O771   1.262       .  A
N767        O772   1.262       .  A
N770        O774   1.262       .  A
N770        O773   1.262       .  A
C775        C776   1.405       .  A
C775        C780   1.387       .  A
C775        H782   1.083       .  S
C776        C777   1.414       .  A
C777        C778   1.406       .  A
C777        N784   1.428       .  S
C778        C779   1.404       .  A
C778        H783   1.084       .  S
C779        C780   1.403       .  A
C780        N781   1.430       .  S
N781        O785   1.262       .  A
N781        O786   1.262       .  A
N784        O788   1.262       .  A
N784        O787   1.262       .  A
C789        C790   1.408       .  A
C789        C794   1.391       .  A
C789        H796   1.081       .  S
C790        C791   1.411       .  A
C791        C792   1.411       .  A
C791        N798   1.427       .  S
C792        C793   1.409       .  A
C792        H797   1.084       .  S
C793        C794   1.404       .  A
C794        N795   1.431       .  S
N795        O799   1.262       .  A
N795        O800   1.262       .  A
N798        O802   1.262       .  A
N798        O801   1.262       .  A
C803        C804   1.403       .  A
C803        C808   1.402       .  A
C803        H810   1.084       .  S
C804        C805   1.413       .  A
C805        C806   1.411       .  A
C805        N812   1.428       .  S
C806        C807   1.406       .  A
C806        H811   1.084       .  S
C807        C808   1.410       .  A
C808        N809   1.428       .  S
N809        O813   1.261       .  A
N809        O814   1.262       .  A
N812        O816   1.262       .  A
N812        O815   1.262       .  A
C817        C818   1.403       .  A
C817        C822   1.398       .  A
C817        H824   1.084       .  S
C818        C819   1.415       .  A
C819        C820   1.405       .  A
C819        N826   1.429       .  S
C820        C821   1.401       .  A
C820        H825   1.084       .  S
C821        C822   1.408       .  A
C822        N823   1.428       .  S
N823        O827   1.261       .  A
N823        O828   1.262       .  A
N826        O830   1.262       .  A
N826        O829   1.262       .  A
C831        C832   1.398       .  A
C831        C836   1.398       .  A
C831        H838   1.084       .  S
C832        C833   1.407       .  A
C833        C834   1.403       .  A
C833        N840   1.429       .  S
C834        C835   1.403       .  A
C834        H839   1.084       .  S
C835        C836   1.413       .  A
C836        N837   1.429       .  S
N837        O841   1.262       .  A
N837        O842   1.261       .  A
N840        O844   1.262       .  A
N840        O843   1.262       .  A
C845        C846   1.401       .  A
C845        C850   1.410       .  A
C845        H852   1.084       .  S
C846        C847   1.406       .  A
C847        C848   1.404       .  A
C847        N854   1.431       .  S
C848        C849   1.409       .  A
C848        H853   1.084       .  S
C849        C850   1.417       .  A
C850        N851   1.428       .  S
N851        O855   1.262       .  A
N851        O856   1.262       .  A
N854        O858   1.261       .  A
N854       O2657   1.260       .  A
O857       N2654   1.260   1_455  A
C859        C860   1.409       .  A
C859        C864   1.399       .  A
C859        H866   1.083       .  S
C860        C861   1.412       .  A
C861        C862   1.408       .  A
C861        N868   1.427       .  S
C862        C863   1.407       .  A
C862        H867   1.084       .  S
C863        C864   1.406       .  A
C864        N865   1.429       .  S
N865        O869   1.262       .  A
N865        O870   1.262       .  A
N868        O872   1.262       .  A
N868        O871   1.262       .  A
C873        C874   1.402       .  A
C873        C878   1.404       .  A
C873        H880   1.084       .  S
C874        C875   1.402       .  A
C875        C876   1.386       .  A
C875        N882   1.429       .  S
C876        C877   1.405       .  A
C876        H881   1.083       .  S
C877        C878   1.415       .  A
C878        N879   1.429       .  S
N879        O883   1.262       .  A
N879        O884   1.262       .  A
N882        O886   1.262       .  A
N882        O885   1.262       .  A
C887        C888   1.400       .  A
C887        C892   1.399       .  A
C887        H894   1.084       .  S
C888        C889   1.410       .  A
C889        C890   1.403       .  A
C889        N896   1.428       .  S
C890        C891   1.405       .  A
C890        H895   1.083       .  S
C891        C892   1.419       .  A
C892        N893   1.430       .  S
N893        O897   1.262       .  A
N893        O898   1.262       .  A
N896        O900   1.262       .  A
N896        O899   1.262       .  A
N901        C906   1.356       .  A
N901        C905   1.353       .  A
N901        H933   1.037       .  S
N902        C909   1.355       .  A
N902        C910   1.357       .  A
N903        C908   1.353       .  A
N903        C907   1.357       .  A
N903        H934   1.037       .  S
N904        C911   1.352       .  A
N904        C912   1.351       .  A
C905        C913   1.390       .  A
C905        C921   1.420       .  A
C906        C922   1.416       .  A
C906        C914   1.385       .  A
C907        C915   1.391       .  A
C907        C924   1.423       .  A
C908        C923   1.414       .  A
C908        C916   1.385       .  A
C909        C921   1.425       .  A
C909        C917   1.387       .  A
C910        C924   1.425       .  A
C910        C918   1.386       .  A
C911        C919   1.386       .  A
C911        C922   1.412       .  A
C912        C920   1.386       .  A
C912        C923   1.410       .  A
C913        C914   1.373       .  A
C913        H925   1.082       .  S
C914        H926   1.083       .  S
C915        C916   1.368       .  A
C915        H927   1.081       .  S
C916        H928   1.082       .  S
C917        C918   1.381       .  A
C917        H929   1.082       .  S
C918        H930   1.082       .  S
C919        C920   1.373       .  A
C919        H931   1.082       .  S
C920        H932   1.082       .  S
C921       C1763   1.495       .  S
C922       C1788   1.492       .  S
C923       C1774   1.484       .  S
C924       C1749   1.503       .  S
N935        C940   1.354       .  A
N935        C939   1.351       .  A
N935        H967   1.040       .  S
N936        C943   1.354       .  A
N936        C944   1.355       .  A
N937        C942   1.354       .  A
N937        C941   1.354       .  A
N937        H968   1.039       .  S
N938        C945   1.348       .  A
N938        C946   1.347       .  A
C939        C947   1.386       .  A
C939        C955   1.409       .  A
C940        C956   1.415       .  A
C940        C948   1.388       .  A
C941        C949   1.385       .  A
C941        C958   1.413       .  A
C942        C957   1.418       .  A
C942        C950   1.388       .  A
C943        C955   1.417       .  A
C943        C951   1.386       .  A
C944        C958   1.418       .  A
C944        C952   1.386       .  A
C945        C953   1.386       .  A
C945        C956   1.407       .  A
C946        C954   1.387       .  A
C946        C957   1.408       .  A
C947        C948   1.373       .  A
C947        H959   1.082       .  S
C948        H960   1.082       .  S
C949        C950   1.376       .  A
C949        H961   1.082       .  S
C950        H962   1.082       .  S
C951        C952   1.379       .  A
C951        H963   1.082       .  S
C952        H964   1.082       .  S
C953        C954   1.373       .  A
C953        H965   1.083       .  S
C954        H966   1.082       .  S
C955       C1693   1.485       .  S
C956       C1718   1.480       .  S
C957       C1732   1.482       .  S
C958       C1704   1.494       .  S
N969        N970   1.326       .  A
N969        N975   1.314       .  A
N970        C977   1.361       .  A
N971        N973   1.315       .  A
N971        N972   1.312       .  A
N971       Mn987   2.184       .  S
N972        C978   1.349       .  A
N973        N974   1.328       .  A
N973       Mn998   2.224       .  S
N974        C978   1.360       .  A
N975        N976   1.316       .  A
N976        C977   1.348       .  A
C977       C1791   1.489       .  S
C978       C1777   1.487       .  S
N979        N985   1.315       .  A
N979        N980   1.323       .  A
N979      Mn1009   2.201       .  S
N980        C988   1.354       .  A
N981        N982   1.319       .  A
N981        N983   1.317       .  A
N982        C989   1.350       .  A
N983        N984   1.325       .  A
N984        C989   1.356       .  A
N985        N986   1.316       .  A
N985       Mn987   2.186       .  S
N986        C988   1.348       .  A
Mn987     Cl1011   2.506       .  S
C988       C1721   1.466       .  S
C989       C1735   1.476       .  S
N990        N991   1.327       .  A
N990        N996   1.316       .  A
N990       Mn998   2.218       .  S
N991        C999   1.358       .  A
N992        N994   1.317       .  A
N992        N993   1.316       .  A
N993       C1000   1.348       .  A
N994        N995   1.323       .  A
N995       C1000   1.354       .  A
N996        N997   1.314       .  A
N996      Mn1010   2.188       .  S
N997        C999   1.349       .  A
Mn998     Cl1011   2.585       .  S
C999       C1634   1.481       .  S
C1000      C1648   1.466       .  S
N1001      N1002   1.329       .  A
N1001      N1007   1.314       .  A
N1002      C1012   1.361       .  A
N1003      N1004   1.317       .  A
N1003      N1005   1.316       .  A
N1003     Mn1010   2.203       .  S
N1004      C1013   1.352       .  A
N1005      N1006   1.329       .  A
N1005     Mn1009   2.237       .  S
N1006      C1013   1.362       .  A
N1007      N1008   1.313       .  A
N1008      C1012   1.348       .  A
Mn1009    Cl1011   2.590       .  S
Mn1010    Cl1011   2.502       .  S
C1012      C1676   1.486       .  S
C1013      C1662   1.498       .  S
N1014      C1019   1.352       .  A
N1014      C1018   1.354       .  A
N1014      H1046   1.038       .  S
N1015      C1022   1.352       .  A
N1015      C1023   1.351       .  A
N1016      C1021   1.356       .  A
N1016      C1020   1.352       .  A
N1016      H1047   1.035       .  S
N1017      C1024   1.349       .  A
N1017      C1025   1.349       .  A
C1018      C1026   1.385       .  A
C1018      C1034   1.412       .  A
C1019      C1035   1.417       .  A
C1019      C1027   1.388       .  A
C1020      C1028   1.386       .  A
C1020      C1037   1.415       .  A
C1021      C1036   1.420       .  A
C1021      C1029   1.388       .  A
C1022      C1034   1.411       .  A
C1022      C1030   1.386       .  A
C1023      C1037   1.410       .  A
C1023      C1031   1.386       .  A
C1024      C1032   1.386       .  A
C1024      C1035   1.412       .  A
C1025      C1033   1.386       .  A
C1025      C1036   1.411       .  A
C1026      C1027   1.375       .  A
C1026      H1038   1.083       .  S
C1027      H1039   1.082       .  S
C1028      C1029   1.375       .  A
C1028      H1040   1.082       .  S
C1029      H1041   1.082       .  S
C1030      C1031   1.372       .  A
C1030      H1042   1.082       .  S
C1031      H1043   1.082       .  S
C1032      C1033   1.374       .  A
C1032      H1044   1.082       .  S
C1033      H1045   1.082       .  S
C1034      C1620   1.487       .  S
C1035      C1651   1.484       .  S
C1036      C1637   1.487       .  S
C1037      C1609   1.480       .  S
N1048      C1053   1.352       .  A
N1048      C1052   1.351       .  A
N1048      H1080   1.036       .  S
N1049      C1056   1.347       .  A
N1049      C1057   1.348       .  A
N1050      C1055   1.352       .  A
N1050      C1054   1.356       .  A
N1050      H1081   1.036       .  S
N1051      C1058   1.353       .  A
N1051      C1059   1.351       .  A
C1052      C1060   1.389       .  A
C1052      C1068   1.416       .  A
C1053      C1069   1.412       .  A
C1053      C1061   1.386       .  A
C1054      C1062   1.387       .  A
C1054      C1071   1.418       .  A
C1055      C1070   1.415       .  A
C1055      C1063   1.387       .  A
C1056      C1068   1.408       .  A
C1056      C1064   1.388       .  A
C1057      C1071   1.408       .  A
C1057      C1065   1.385       .  A
C1058      C1066   1.385       .  A
C1058      C1069   1.414       .  A
C1059      C1067   1.386       .  A
C1059      C1070   1.413       .  A
C1060      C1061   1.374       .  A
C1060      H1072   1.082       .  S
C1061      H1073   1.082       .  S
C1062      C1063   1.372       .  A
C1062      H1074   1.082       .  S
C1063      H1075   1.082       .  S
C1064      C1065   1.373       .  A
C1064      H1076   1.083       .  S
C1065      H1077   1.082       .  S
C1066      C1067   1.374       .  A
C1066      H1078   1.082       .  S
C1067      H1079   1.082       .  S
C1068      C1581   1.475       .  S
C1069      C1665   1.488       .  S
C1070      C1679   1.483       .  S
C1071      C1592   1.485       .  S
N1082      N1083   1.310       .  A
N1082      N1088   1.317       .  A
N1082     Mn2911   2.178       .  S
N1083      C1090   1.341       .  A
N1084      N1086   1.317       .  A
N1084      N1085   1.309       .  A
N1084     Mn1100   2.169   1_565  S
N1085      C1091   1.338       .  A
N1086      N1087   1.340       .  A
N1086     Mn2911   2.284       .  S
N1087      C1091   1.376       .  A
N1088      N1089   1.335       .  A
N1088     Mn1100   2.252   1_565  S
N1089      C1090   1.368       .  A
C1090      C1760   1.493       .  S
C1091      C1522   1.511       .  S
N1092      N1098   1.317       .  A
N1092      N1093   1.330       .  A
N1092     Mn2922   2.241       .  S
N1093      C1101   1.363       .  A
N1094      N1095   1.331       .  A
N1094      N1096   1.318       .  A
N1095      C1102   1.364       .  A
N1096      N1097   1.310       .  A
N1096     Mn2922   2.169       .  S
N1097      C1102   1.340       .  A
N1098      N1099   1.313       .  A
N1099      C1101   1.342       .  A
Mn1100    Cl2924   2.549       .  S
C1101      C1550   1.478       .  S
C1102      C1746   1.475       .  S
N1103      N1104   1.334       .  A
N1103      N1109   1.317       .  A
N1103     Mn1111   2.270       .  S
N1104      C1112   1.372       .  A
N1105      N1107   1.320       .  A
N1105      N1106   1.330       .  A
N1105     Mn1123   2.240   1_565  S
N1106      C1113   1.362       .  A
N1107      N1108   1.317       .  A
N1107     Mn1111   2.210       .  S
N1108      C1113   1.346       .  A
N1109      N1110   1.312       .  A
N1109     Mn1123   2.165   1_565  S
N1110      C1112   1.339       .  A
Mn1111     N2882   2.191   1_455  S
Mn1111     N2886   2.285   1_455  S
Mn1111    Cl1124   2.550   1_565  S
C1112      C1536   1.500       .  S
C1113      C1707   1.483       .  S
N1114      N1115   1.311       .  A
N1114      N1120   1.318       .  A
N1114     Mn1122   2.187       .  S
N1115      C1125   1.343       .  A
N1116      N1117   1.312       .  A
N1116      N1118   1.318       .  A
N1117      C1126   1.340       .  A
N1118      N1119   1.330       .  A
N1118     Mn1122   2.242       .  S
N1119      C1126   1.363       .  A
N1120      N1121   1.332       .  A
N1121      C1125   1.363       .  A
Mn1122     N2892   2.245   1_455  S
Mn1122     N2896   2.178   1_455  S
Mn1123    Cl1124   2.556       .  S
Cl1124    Mn2900   2.556   1_445  S
C1125      C1690   1.483       .  S
C1126      C1564   1.472       .  S
N1127      N1128   1.326       .  A
N1127      N1133   1.317       .  A
N1127     Mn2956   2.222   1_556  S
N1128      C1135   1.356       .  A
N1129      N1131   1.316       .  A
N1129      N1130   1.320       .  A
N1129     Mn1145   2.214       .  S
N1130      C1136   1.353       .  A
N1131      N1132   1.322       .  A
N1131     Mn1156   2.198   1_556  S
N1132      C1136   1.351       .  A
N1133      N1134   1.321       .  A
N1133     Mn2945   2.219       .  S
N1134      C1135   1.354       .  A
C1135      C1511   1.486       .  S
C1136      C1494   1.469       .  S
N1137      N1143   1.317       .  A
N1137      N1138   1.320       .  A
N1137     Mn1167   2.194       .  S
N1138      C1146   1.351       .  A
N1139      N1140   1.320       .  A
N1139      N1141   1.317       .  A
N1139     Mn2945   2.206       .  S
N1140      C1147   1.353       .  A
N1141      N1142   1.320       .  A
N1141     Mn2967   2.204       .  S
N1142      C1147   1.352       .  A
N1143      N1144   1.320       .  A
N1143     Mn1145   2.214       .  S
N1144      C1146   1.353       .  A
Mn1145     N2933   2.217   1_455  S
Mn1145     N2939   2.212   1_455  S
Mn1145    Cl1169   2.519       .  S
C1146      C1466   1.472       .  S
C1147      C1480   1.474       .  S
N1148      N1149   1.323       .  A
N1148      N1154   1.315       .  A
N1148     Mn1156   2.206       .  S
N1149      C1157   1.354       .  A
N1150      N1152   1.316       .  A
N1150      N1151   1.320       .  A
N1150     Mn2968   2.213       .  S
N1151      C1158   1.353       .  A
N1152      N1153   1.324       .  A
N1152     Mn2956   2.207       .  S
N1153      C1158   1.355       .  A
N1154      N1155   1.319       .  A
N1154     Mn1168   2.200       .  S
N1155      C1157   1.352       .  A
Mn1156     N2927   2.217   1_454  S
Mn1156     N2952   2.213   1_455  S
Mn1156    Cl1169   2.583   1_554  S
C1157      C1413   1.474       .  S
C1158      C1427   1.485       .  S
N1159      N1160   1.327       .  A
N1159      N1165   1.314       .  A
N1159     Mn2967   2.208   1_554  S
N1160      C1170   1.358       .  A
N1161      N1162   1.315       .  A
N1161      N1163   1.314       .  A
N1161     Mn1168   2.187       .  S
N1162      C1171   1.350       .  A
N1163      N1164   1.329       .  A
N1163     Mn1167   2.235   1_554  S
N1164      C1171   1.362       .  A
N1165      N1166   1.311       .  A
N1165     Mn2968   2.182       .  S
N1166      C1170   1.349       .  A
Mn1167     N2941   2.219   1_455  S
Mn1167     N2959   2.215   1_456  S
Mn1167    Cl1169   2.586       .  S
Mn1168     N2950   2.196   1_455  S
Mn1168     N2965   2.186   1_455  S
Mn1168    Cl1169   2.510   1_554  S
C1170      C1452   1.480       .  S
C1171      C1438   1.494       .  S
N1172      C1177   1.354       .  A
N1172      C1176   1.352       .  A
N1172      H1204   1.041       .  S
N1173      C1180   1.350       .  A
N1173      C1181   1.352       .  A
N1174      C1179   1.350       .  A
N1174      C1178   1.352       .  A
N1174      H1205   1.041       .  S
N1175      C1182   1.350       .  A
N1175      C1183   1.350       .  A
C1176      C1184   1.388       .  A
C1176      C1192   1.413       .  A
C1177      C1193   1.413       .  A
C1177      C1185   1.387       .  A
C1178      C1186   1.387       .  A
C1178      C1195   1.412       .  A
C1179      C1194   1.409       .  A
C1179      C1187   1.386       .  A
C1180      C1192   1.413       .  A
C1180      C1188   1.387       .  A
C1181      C1195   1.413       .  A
C1181      C1189   1.385       .  A
C1182      C1190   1.385       .  A
C1182      C1193   1.411       .  A
C1183      C1191   1.386       .  A
C1183      C1194   1.412       .  A
C1184      C1185   1.371       .  A
C1184      H1196   1.082       .  S
C1185      H1197   1.082       .  S
C1186      C1187   1.375       .  A
C1186      H1198   1.082       .  S
C1187      H1199   1.082       .  S
C1188      C1189   1.377       .  A
C1188      H1200   1.082       .  S
C1189      H1201   1.082       .  S
C1190      C1191   1.377       .  A
C1190      H1202   1.082       .  S
C1191      H1203   1.082       .  S
C1192      C1483   1.482       .  S
C1193      C1396   1.492       .  S
C1194      C1382   1.488       .  S
C1195      C1469   1.489       .  S
N1206      C1211   1.352       .  A
N1206      C1210   1.353       .  A
N1206      H1238   1.043       .  S
N1207      C1214   1.349       .  A
N1207      C1215   1.349       .  A
N1208      C1213   1.350       .  A
N1208      C1212   1.352       .  A
N1208      H1239   1.042       .  S
N1209      C1216   1.352       .  A
N1209      C1217   1.351       .  A
C1210      C1218   1.388       .  A
C1210      C1226   1.417       .  A
C1211      C1227   1.411       .  A
C1211      C1219   1.384       .  A
C1212      C1220   1.388       .  A
C1212      C1229   1.413       .  A
C1213      C1228   1.410       .  A
C1213      C1221   1.386       .  A
C1214      C1226   1.417       .  A
C1214      C1222   1.389       .  A
C1215      C1229   1.408       .  A
C1215      C1223   1.384       .  A
C1216      C1224   1.385       .  A
C1216      C1227   1.414       .  A
C1217      C1225   1.387       .  A
C1217      C1228   1.416       .  A
C1218      C1219   1.376       .  A
C1218      H1230   1.082       .  S
C1219      H1231   1.082       .  S
C1220      C1221   1.376       .  A
C1220      H1232   1.082       .  S
C1221      H1233   1.082       .  S
C1222      C1223   1.379       .  A
C1222      H1234   1.082       .  S
C1223      H1235   1.082       .  S
C1224      C1225   1.380       .  A
C1224      H1236   1.082       .  S
C1225      H1237   1.082       .  S
C1226      C1497   1.498       .  S
C1227      C1354   1.497       .  S
C1228      C1371   1.495       .  S
C1229      C1508   1.487       .  S
N1240      N1241   1.325       .  A
N1240      N1246   1.314       .  A
N1240     Mn1269   2.206   1_565  S
N1241      C1248   1.354       .  A
N1242      N1244   1.314       .  A
N1242      N1243   1.311       .  A
N1243      C1249   1.345       .  A
N1244      N1245   1.326       .  A
N1245      C1249   1.358       .  A
N1246      N1247   1.319       .  A
N1246     Mn1258   2.210   1_565  S
N1247      C1248   1.355       .  A
C1248      C1595   1.483       .  S
C1249      C1578   1.468       .  S
N1250      N1256   1.313       .  A
N1250      N1251   1.327       .  A
N1251      C1259   1.360       .  A
N1252      N1253   1.315       .  A
N1252      N1254   1.314       .  A
N1252     Mn3058   2.174   1_565  S
N1253      C1260   1.348       .  A
N1254      N1255   1.325       .  A
N1254     Mn1280   2.229   1_565  S
N1255      C1260   1.361       .  A
N1256      N1257   1.314       .  A
N1256     Mn2158   2.177       .  S
N1257      C1259   1.349       .  A
Mn1258     N3052   2.177   1_445  S
Mn1258     N2156   2.192   1_455  S
Mn1258    Cl1282   2.530       .  S
C1259      C1606   1.487       .  S
C1260      C1623   1.487       .  S
N1261      N1262   1.320       .  A
N1261      N1267   1.318       .  A
N1262      C1270   1.353       .  A
N1263      N1265   1.316       .  A
N1263      N1264   1.322       .  A
N1263     Mn1281   2.226       .  S
N1264      C1271   1.360       .  A
N1265      N1266   1.317       .  A
N1265     Mn1269   2.181   1_565  S
N1266      C1271   1.349       .  A
N1267      N1268   1.323       .  A
N1268      C1270   1.356       .  A
Mn1269    Cl1282   2.557       .  S
C1270      C1357   1.486       .  S
C1271      C1385   1.478       .  S
N1272      N1273   1.318       .  A
N1272      N1278   1.318       .  A
N1272     Mn1280   2.208   1_565  S
N1273      C1283   1.353       .  A
N1274      N1275   1.322       .  A
N1274      N1276   1.318       .  A
N1274     Mn2181   2.224       .  S
N1275      C1284   1.357       .  A
N1276      N1277   1.321       .  A
N1277      C1284   1.353       .  A
N1278      N1279   1.319       .  A
N1278     Mn3081   2.194   1_565  S
N1279      C1283   1.351       .  A
Mn1280    Cl3082   2.555       .  S
Mn1281     N2174   2.229   1_465  S
Mn1281     N3078   2.204   1_455  S
Mn1281    Cl1282   2.542   1_565  S
Cl1282    Mn3080   2.560   1_455  S
C1283      C1399   1.476       .  S
C1284      C1368   1.487       .  S
N1285      C1290   1.347       .  A
N1285      C1289   1.349       .  A
N1285      H1317   1.038       .  S
N1286      C1293   1.352       .  A
N1286      C1294   1.348       .  A
N1287      C1292   1.357       .  A
N1287      C1291   1.353       .  A
N1287      H1318   1.042       .  S
N1288      C1295   1.350       .  A
N1288      C1296   1.352       .  A
C1289      C1297   1.385       .  A
C1289      C1305   1.406       .  A
C1290      C1306   1.408       .  A
C1290      C1298   1.388       .  A
C1291      C1299   1.387       .  A
C1291      C1308   1.418       .  A
C1292      C1307   1.422       .  A
C1292      C1300   1.386       .  A
C1293      C1305   1.411       .  A
C1293      C1301   1.385       .  A
C1294      C1308   1.410       .  A
C1294      C1302   1.388       .  A
C1295      C1303   1.386       .  A
C1295      C1306   1.411       .  A
C1296      C1304   1.387       .  A
C1296      C1307   1.415       .  A
C1297      C1298   1.377       .  A
C1297      H1309   1.082       .  S
C1298      H1310   1.082       .  S
C1299      C1300   1.382       .  A
C1299      H1311   1.082       .  S
C1300      H1312   1.082       .  S
C1301      C1302   1.372       .  A
C1301      H1313   1.082       .  S
C1302      H1314   1.082       .  S
C1303      C1304   1.372       .  A
C1303      H1315   1.082       .  S
C1304      H1316   1.082       .  S
C1305      C1424   1.481       .  S
C1306      C1410   1.475       .  S
C1307      C1567   1.508       .  S
C1308      C1553   1.482       .  S
N1319      C1324   1.361       .  A
N1319      C1323   1.360       .  A
N1319      H1351   1.038       .  S
N1320      C1327   1.351       .  A
N1320      C1328   1.352       .  A
N1321      C1326   1.350       .  A
N1321      C1325   1.352       .  A
N1321      H1352   1.041       .  S
N1322      C1329   1.353       .  A
N1322      C1330   1.351       .  A
C1323      C1331   1.387       .  A
C1323      C1339   1.431       .  A
C1324      C1340   1.434       .  A
C1324      C1332   1.388       .  A
C1325      C1333   1.386       .  A
C1325      C1342   1.409       .  A
C1326      C1341   1.409       .  A
C1326      C1334   1.388       .  A
C1327      C1339   1.416       .  A
C1327      C1335   1.388       .  A
C1328      C1342   1.410       .  A
C1328      C1336   1.384       .  A
C1329      C1337   1.387       .  A
C1329      C1340   1.417       .  A
C1330      C1338   1.384       .  A
C1330      C1341   1.410       .  A
C1331      C1332   1.384       .  A
C1331      H1343   1.082       .  S
C1332      H1344   1.082       .  S
C1333      C1334   1.374       .  A
C1333      H1345   1.082       .  S
C1334      H1346   1.082       .  S
C1335      C1336   1.372       .  A
C1335      H1347   1.082       .  S
C1336      H1348   1.083       .  S
C1337      C1338   1.373       .  A
C1337      H1349   1.082       .  S
C1338      H1350   1.082       .  S
C1339      C1539   1.503       .  S
C1340      C1525   1.511       .  S
C1341      C1455   1.479       .  S
C1342      C1441   1.484       .  S
C1353      C1354   1.405       .  A
C1353      C1358   1.399       .  A
C1353      H1360   1.084       .  S
C1354      C1355   1.412       .  A
C1355      C1356   1.405       .  A
C1355      N1362   1.429       .  S
C1356      C1357   1.406       .  A
C1356      H1361   1.084       .  S
C1357      C1358   1.413       .  A
C1358      N1359   1.429       .  S
N1359      O1363   1.261       .  A
N1359      O1364   1.262       .  A
N1362      O1366   1.262       .  A
N1362      O1365   1.262       .  A
C1367      C1368   1.405       .  A
C1367      C1372   1.401       .  A
C1367      H1374   1.084       .  S
C1368      C1369   1.413       .  A
C1369      C1370   1.401       .  A
C1369      N1376   1.428       .  S
C1370      C1371   1.403       .  A
C1370      H1375   1.084       .  S
C1371      C1372   1.415       .  A
C1372      N1373   1.430       .  S
N1373      O1377   1.262       .  A
N1373      O1378   1.262       .  A
N1376      O1380   1.262       .  A
N1376      O1379   1.262       .  A
C1381      C1382   1.401       .  A
C1381      C1386   1.401       .  A
C1381      H1388   1.084       .  S
C1382      C1383   1.411       .  A
C1383      C1384   1.396       .  A
C1383      N1390   1.427       .  S
C1384      C1385   1.400       .  A
C1384      H1389   1.084       .  S
C1385      C1386   1.414       .  A
C1386      N1387   1.429       .  S
N1387      O1391   1.262       .  A
N1387      O1392   1.262       .  A
N1390      O1394   1.261       .  A
N1390      O1393   1.262       .  A
C1395      C1396   1.404       .  A
C1395      C1400   1.397       .  A
C1395      H1402   1.084       .  S
C1396      C1397   1.412       .  A
C1397      C1398   1.399       .  A
C1397      N1404   1.428       .  S
C1398      C1399   1.401       .  A
C1398      H1403   1.084       .  S
C1399      C1400   1.414       .  A
C1400      N1401   1.429       .  S
N1401      O1405   1.261       .  A
N1401      O1406   1.262       .  A
N1404      O1408   1.262       .  A
N1404      O1407   1.262       .  A
C1409      C1410   1.394       .  A
C1409      C1414   1.393       .  A
C1409      H1416   1.084       .  S
C1410      C1411   1.406       .  A
C1411      C1412   1.404       .  A
C1411      N1418   1.429       .  S
C1412      C1413   1.406       .  A
C1412      H1417   1.083       .  S
C1413      C1414   1.410       .  A
C1414      N1415   1.426       .  S
N1415      O1419   1.259       .  A
N1415      O1420   1.262       .  A
N1418      O1422   1.262       .  A
N1418      O1421   1.262       .  A
C1423      C1424   1.398       .  A
C1423      C1428   1.402       .  A
C1423      H1430   1.084       .  S
C1424      C1425   1.405       .  A
C1425      C1426   1.400       .  A
C1425      N1432   1.430       .  S
C1426      C1427   1.407       .  A
C1426      H1431   1.084       .  S
C1427      C1428   1.416       .  A
C1428      N1429   1.427       .  S
N1429      O1433   1.262       .  A
N1429      O1434   1.262       .  A
N1432      O1436   1.262       .  A
N1432      O1435   1.262       .  A
C1437      C1438   1.409       .  A
C1437      C1442   1.394       .  A
C1437      H1444   1.082       .  S
C1438      C1439   1.417       .  A
C1439      C1440   1.409       .  A
C1439      N1446   1.427       .  S
C1440      C1441   1.402       .  A
C1440      H1445   1.083       .  S
C1441      C1442   1.402       .  A
C1442      N1443   1.431       .  S
N1443      O1447   1.261       .  A
N1443      O1448   1.262       .  A
N1446      O1450   1.262       .  A
N1446      O1449   1.262       .  A
C1451      C1452   1.405       .  A
C1451      C1456   1.388       .  A
C1451      H1458   1.084       .  S
C1452      C1453   1.415       .  A
C1453      C1454   1.407       .  A
C1453      N1460   1.428       .  S
C1454      C1455   1.403       .  A
C1454      H1459   1.084       .  S
C1455      C1456   1.402       .  A
C1456      N1457   1.429       .  S
N1457      O1461   1.261       .  A
N1457      O1462   1.262       .  A
N1460      O1464   1.262       .  A
N1460      O1463   1.262       .  A
C1465      C1466   1.397       .  A
C1465      C1470   1.399       .  A
C1465      H1472   1.084       .  S
C1466      C1467   1.406       .  A
C1467      C1468   1.401       .  A
C1467      N1474   1.425       .  S
C1468      C1469   1.403       .  A
C1468      H1473   1.084       .  S
C1469      C1470   1.413       .  A
C1470      N1471   1.426       .  S
N1471      O1475   1.260       .  A
N1471      O1476   1.261       .  A
N1474      O1478   1.262       .  A
N1474      O1477   1.262       .  A
C1479      C1480   1.404       .  A
C1479      C1484   1.402       .  A
C1479      H1486   1.084       .  S
C1480      C1481   1.409       .  A
C1481      C1482   1.394       .  A
C1481      N1488   1.425       .  S
C1482      C1483   1.398       .  A
C1482      H1487   1.084       .  S
C1483      C1484   1.410       .  A
C1484      N1485   1.429       .  S
N1485      O1489   1.262       .  A
N1485      O1490   1.262       .  A
N1488      O1492   1.262       .  A
N1488      O1491   1.261       .  A
C1493      C1494   1.400       .  A
C1493      C1498   1.403       .  A
C1493      H1500   1.084       .  S
C1494      C1495   1.405       .  A
C1495      C1496   1.396       .  A
C1495      N1502   1.429       .  S
C1496      C1497   1.405       .  A
C1496      H1501   1.083       .  S
C1497      C1498   1.418       .  A
C1498      N1499   1.431       .  S
N1499      O1503   1.262       .  A
N1499      O1504   1.262       .  A
N1502      O1506   1.260       .  A
N1502      O1505   1.262       .  A
C1507      C1508   1.402       .  A
C1507      C1512   1.406       .  A
C1507      H1514   1.084       .  S
C1508      C1509   1.406       .  A
C1509      C1510   1.402       .  A
C1509      N1516   1.430       .  S
C1510      C1511   1.404       .  A
C1510      H1515   1.078       .  S
C1511      C1512   1.412       .  A
C1512      N1513   1.427       .  S
N1513      O1517   1.262       .  A
N1513      O1518   1.262       .  A
N1516      O1520   1.262       .  A
N1516      O1519   1.262       .  A
C1521      C1522   1.407       .  A
C1521      C1526   1.419       .  A
C1521      H1528   1.083       .  S
C1522      C1523   1.428       .  A
C1523      C1524   1.397       .  A
C1523      N1530   1.428       .  S
C1524      C1525   1.393       .  A
C1524      H1529   1.085       .  S
C1525      C1526   1.423       .  A
C1526      N1527   1.429       .  S
N1527      O1531   1.262       .  A
N1527      O1532   1.262       .  A
N1530      O1534   1.262       .  A
N1530      O1533   1.260   1_565  A
C1535      C1536   1.403       .  A
C1535      C1540   1.410       .  A
C1535      H1542   1.083       .  S
C1536      C1537   1.427       .  A
C1537      C1538   1.400       .  A
C1537      N1544   1.431       .  S
C1538      C1539   1.396       .  A
C1538      H1543   1.085       .  S
C1539      C1540   1.419       .  A
C1540      N1541   1.428       .  S
N1541      O1545   1.261       .  A
N1541      O1546   1.262       .  A
N1544      O1548   1.261   1_565  A
N1544      O1547   1.262       .  A
C1549      C1550   1.406       .  A
C1549      C1554   1.398       .  A
C1549      H1556   1.080       .  S
C1550      C1551   1.410       .  A
C1551      C1552   1.404       .  A
C1551      N1558   1.427       .  S
C1552      C1553   1.402       .  A
C1552      H1557   1.084       .  S
C1553      C1554   1.404       .  A
C1554      N1555   1.430       .  S
N1555      O1559   1.262       .  A
N1555      O1560   1.262       .  A
N1558      O1562   1.262       .  A
N1558      O1561   1.262       .  A
C1563      C1564   1.405       .  A
C1563      C1568   1.406       .  A
C1563      H1570   1.084       .  S
C1564      C1565   1.401       .  A
C1565      C1566   1.399       .  A
C1565      N1572   1.429       .  S
C1566      C1567   1.412       .  A
C1566      H1571   1.083       .  S
C1567      C1568   1.417       .  A
C1568      N1569   1.430       .  S
N1569      O1573   1.262       .  A
N1569      O1574   1.262       .  A
N1572      O1576   1.260       .  A
N1572      O1575   1.261       .  A
C1577      C1578   1.405       .  A
C1577      C1582   1.391       .  A
C1577      H1584   1.084       .  S
C1578      C1579   1.410       .  A
C1579      C1580   1.401       .  A
C1579      N1586   1.427       .  S
C1580      C1581   1.400       .  A
C1580      H1585   1.084       .  S
C1581      C1582   1.401       .  A
C1582      N1583   1.427       .  S
N1583      O1587   1.261       .  A
N1583      O1588   1.262       .  A
N1586      O1590   1.262       .  A
N1586      O1589   1.262       .  A
C1591      C1592   1.402       .  A
C1591      C1596   1.405       .  A
C1591      H1598   1.084       .  S
C1592      C1593   1.407       .  A
C1593      C1594   1.397       .  A
C1593      N1600   1.430       .  S
C1594      C1595   1.399       .  A
C1594      H1599   1.078       .  S
C1595      C1596   1.413       .  A
C1596      N1597   1.427       .  S
N1597      O1601   1.262       .  A
N1597      O1602   1.262       .  A
N1600      O1604   1.262       .  A
N1600      O1603   1.262       .  A
C1605      C1606   1.410       .  A
C1605      C1610   1.395       .  A
C1605      H1612   1.083       .  S
C1606      C1607   1.415       .  A
C1607      C1608   1.404       .  A
C1607      N1614   1.427       .  S
C1608      C1609   1.400       .  A
C1608      H1613   1.083       .  S
C1609      C1610   1.401       .  A
C1610      N1611   1.429       .  S
N1611      O3415   1.262       .  A
N1611      O1616   1.262       .  A
N1614      O1618   1.261       .  A
N1614      O1617   1.262       .  A
O1615      N3411   1.262       .  A
C1619      C1620   1.397       .  A
C1619      C1624   1.394       .  A
C1619      H1626   1.085       .  S
C1620      C1621   1.410       .  A
C1621      C1622   1.405       .  A
C1621      N1628   1.428       .  S
C1622      C1623   1.407       .  A
C1622      H1627   1.083       .  S
C1623      C1624   1.419       .  A
C1624      N1625   1.429       .  S
N1625      O1629   1.262       .  A
N1625      O1630   1.262       .  A
N1628      O1632   1.262       .  A
N1628      O1631   1.262       .  A
C1633      C1634   1.404       .  A
C1633      C1638   1.391       .  A
C1633      H1640   1.084       .  S
C1634      C1635   1.414       .  A
C1635      C1636   1.408       .  A
C1635      N1642   1.428       .  S
C1636      C1637   1.404       .  A
C1636      H1641   1.084       .  S
C1637      C1638   1.404       .  A
C1638      N1639   1.427       .  S
N1639      O1643   1.261       .  A
N1639      O1644   1.262       .  A
N1642      O1646   1.262       .  A
N1642      O1645   1.262       .  A
C1647      C1648   1.399       .  A
C1647      C1652   1.400       .  A
C1647      H1654   1.084       .  S
C1648      C1649   1.408       .  A
C1649      C1650   1.396       .  A
C1649      N1656   1.428       .  S
C1650      C1651   1.401       .  A
C1650      H1655   1.084       .  S
C1651      C1652   1.412       .  A
C1652      N1653   1.429       .  S
N1653      O1657   1.262       .  A
N1653      O1658   1.262       .  A
N1656      O1660   1.260       .  A
N1656      O1659   1.262       .  A
C1661      C1662   1.410       .  A
C1661      C1666   1.397       .  A
C1661      H1668   1.083       .  S
C1662      C1663   1.419       .  A
C1663      C1664   1.410       .  A
C1663      N1670   1.427       .  S
C1664      C1665   1.402       .  A
C1664      H1669   1.084       .  S
C1665      C1666   1.404       .  A
C1666      N1667   1.431       .  S
N1667      O1671   1.262       .  A
N1667      O1672   1.262       .  A
N1670      O1674   1.262       .  A
N1670      O1673   1.262       .  A
C1675      C1676   1.407       .  A
C1675      C1680   1.392       .  A
C1675      H1682   1.083       .  S
C1676      C1677   1.414       .  A
C1677      C1678   1.406       .  A
C1677      N1684   1.428       .  S
C1678      C1679   1.403       .  A
C1678      H1683   1.084       .  S
C1679      C1680   1.403       .  A
C1680      N1681   1.429       .  S
N1681      O1685   1.262       .  A
N1681      O1686   1.262       .  A
N1684      O1688   1.262       .  A
N1684      O1687   1.262       .  A
C1689      C1690   1.403       .  A
C1689      C1694   1.390       .  A
C1689      H1696   1.076       .  S
C1690      C1691   1.413       .  A
C1691      C1692   1.411       .  A
C1691      N1698   1.427       .  S
C1692      C1693   1.406       .  A
C1692      H1697   1.083       .  S
C1693      C1694   1.403       .  A
C1694      N1695   1.430       .  S
N1695      O1699   1.262       .  A
N1695      O1700   1.262       .  A
N1698      O1702   1.262       .  A
N1698      O1701   1.262       .  A
C1703      C1704   1.400       .  A
C1703      C1708   1.399       .  A
C1703      H1710   1.084       .  S
C1704      C1705   1.413       .  A
C1705      C1706   1.411       .  A
C1705      N1712   1.428       .  S
C1706      C1707   1.405       .  A
C1706      H1711   1.084       .  S
C1707      C1708   1.410       .  A
C1708      N1709   1.428       .  S
N1709      O1713   1.260       .  A
N1709      O1714   1.262       .  A
N1712      O1716   1.262       .  A
N1712      O1715   1.262       .  A
C1717      C1718   1.399       .  A
C1717      C1722   1.394       .  A
C1717      H1724   1.084       .  S
C1718      C1719   1.409       .  A
C1719      C1720   1.401       .  A
C1719      N1726   1.427       .  S
C1720      C1721   1.401       .  A
C1720      H1725   1.084       .  S
C1721      C1722   1.409       .  A
C1722      N1723   1.428       .  S
N1723      O1727   1.260       .  A
N1723      O1728   1.262       .  A
N1726      O1730   1.262       .  A
N1726      O1729   1.262       .  A
C1731      C1732   1.398       .  A
C1731      C1736   1.397       .  A
C1731      H1738   1.084       .  S
C1732      C1733   1.406       .  A
C1733      C1734   1.404       .  A
C1733      N1740   1.429       .  S
C1734      C1735   1.405       .  A
C1734      H1739   1.084       .  S
C1735      C1736   1.412       .  A
C1736      N1737   1.429       .  S
N1737      O1741   1.262       .  A
N1737      O1742   1.261       .  A
N1740      O1744   1.262       .  A
N1740      O1743   1.262       .  A
C1745      C1746   1.402       .  A
C1745      C1750   1.411       .  A
C1745      H1752   1.084       .  S
C1746      C1747   1.407       .  A
C1747      C1748   1.399       .  A
C1747      N1754   1.429       .  S
C1748      C1749   1.406       .  A
C1748      H1753   1.084       .  S
C1749      C1750   1.416       .  A
C1750      N1751   1.427       .  S
N1751      O1755   1.262       .  A
N1751      O1756   1.262       .  A
N1754      O1758   1.262       .  A
N1754      O3557   1.261       .  A
O1757      N3554   1.260   1_455  A
C1759      C1760   1.411       .  A
C1759      C1764   1.397       .  A
C1759      H1766   1.084       .  S
C1760      C1761   1.411       .  A
C1761      C1762   1.411       .  A
C1761      N1768   1.427       .  S
C1762      C1763   1.409       .  A
C1762      H1767   1.084       .  S
C1763      C1764   1.404       .  A
C1764      N1765   1.429       .  S
N1765      O1769   1.262       .  A
N1765      O1770   1.262       .  A
N1768      O1772   1.262       .  A
N1768      O1771   1.262       .  A
C1773      C1774   1.404       .  A
C1773      C1778   1.407       .  A
C1773      H1780   1.084       .  S
C1774      C1775   1.404       .  A
C1775      C1776   1.390       .  A
C1775      N1782   1.430       .  S
C1776      C1777   1.407       .  A
C1776      H1781   1.083       .  S
C1777      C1778   1.415       .  A
C1778      N1779   1.427       .  S
N1779      O1783   1.262       .  A
N1779      O1784   1.262       .  A
N1782      O1786   1.262       .  A
N1782      O1785   1.262       .  A
C1787      C1788   1.398       .  A
C1787      C1792   1.396       .  A
C1787      H1794   1.084       .  S
C1788      C1789   1.412       .  A
C1789      C1790   1.406       .  A
C1789      N1796   1.428       .  S
C1790      C1791   1.406       .  A
C1790      H1795   1.083       .  S
C1791      C1792   1.419       .  A
C1792      N1793   1.430       .  S
N1793      O1797   1.262       .  A
N1793      O1798   1.262       .  A
N1796      O1800   1.262       .  A
N1796      O1799   1.262       .  A
N1801      C1806   1.358       .  A
N1801      C1805   1.352       .  A
N1801      H1833   1.038       .  S
N1802      C1809   1.354       .  A
N1802      C1810   1.357       .  A
N1803      C1808   1.351       .  A
N1803      C1807   1.355       .  A
N1803      H1834   1.036       .  S
N1804      C1811   1.350       .  A
N1804      C1812   1.348       .  A
C1805      C1813   1.389       .  A
C1805      C1821   1.418       .  A
C1806      C1822   1.418       .  A
C1806      C1814   1.385       .  A
C1807      C1815   1.391       .  A
C1807      C1824   1.420       .  A
C1808      C1823   1.412       .  A
C1808      C1816   1.385       .  A
C1809      C1821   1.424       .  A
C1809      C1817   1.386       .  A
C1810      C1824   1.424       .  A
C1810      C1818   1.385       .  A
C1811      C1819   1.386       .  A
C1811      C1822   1.410       .  A
C1812      C1820   1.386       .  A
C1812      C1823   1.406       .  A
C1813      C1814   1.374       .  A
C1813      H1825   1.082       .  S
C1814      H1826   1.082       .  S
C1815      C1816   1.368       .  A
C1815      H1827   1.080       .  S
C1816      H1828   1.082       .  S
C1817      C1818   1.379       .  A
C1817      H1829   1.082       .  S
C1818      H1830   1.081       .  S
C1819      C1820   1.373       .  A
C1819      H1831   1.082       .  S
C1820      H1832   1.082       .  S
C1821      C2663   1.496       .  S
C1822      C2688   1.494       .  S
C1823      C2674   1.475       .  S
C1824      C2649   1.501       .  S
N1835      C1840   1.356       .  A
N1835      C1839   1.349       .  A
N1835      H1867   1.040       .  S
N1836      C1843   1.354       .  A
N1836      C1844   1.357       .  A
N1837      C1842   1.353       .  A
N1837      C1841   1.357       .  A
N1837      H1868   1.039       .  S
N1838      C1845   1.350       .  A
N1838      C1846   1.346       .  A
C1839      C1847   1.388       .  A
C1839      C1855   1.411       .  A
C1840      C1856   1.415       .  A
C1840      C1848   1.386       .  A
C1841      C1849   1.386       .  A
C1841      C1858   1.418       .  A
C1842      C1857   1.418       .  A
C1842      C1850   1.389       .  A
C1843      C1855   1.420       .  A
C1843      C1851   1.386       .  A
C1844      C1858   1.423       .  A
C1844      C1852   1.385       .  A
C1845      C1853   1.385       .  A
C1845      C1856   1.408       .  A
C1846      C1854   1.387       .  A
C1846      C1857   1.407       .  A
C1847      C1848   1.372       .  A
C1847      H1859   1.082       .  S
C1848      H1860   1.082       .  S
C1849      C1850   1.373       .  A
C1849      H1861   1.082       .  S
C1850      H1862   1.082       .  S
C1851      C1852   1.382       .  A
C1851      H1863   1.082       .  S
C1852      H1864   1.082       .  S
C1853      C1854   1.372       .  A
C1853      H1865   1.082       .  S
C1854      H1866   1.082       .  S
C1855      C2593   1.486       .  S
C1856      C2618   1.489       .  S
C1857      C2632   1.476       .  S
C1858      C2604   1.509       .  S
N1869      N1870   1.326       .  A
N1869      N1875   1.314       .  A
N1869     Mn2798   2.228       .  S
N1870      C1877   1.360       .  A
N1871      N1873   1.315       .  A
N1871      N1872   1.311       .  A
N1871     Mn1887   2.183       .  S
N1872      C1878   1.349       .  A
N1873      N1874   1.324       .  A
N1873     Mn1898   2.204       .  S
N1874      C1878   1.357       .  A
N1875      N1876   1.316       .  A
N1875     Mn2787   2.176       .  S
N1876      C1877   1.348       .  A
C1877      C2691   1.483       .  S
C1878      C2677   1.478       .  S
N1879      N1885   1.315       .  A
N1879      N1880   1.325       .  A
N1879     Mn1909   2.207   1_545  S
N1880      C1888   1.355       .  A
N1881      N1882   1.316       .  A
N1881      N1883   1.316       .  A
N1881     Mn2787   2.188       .  S
N1882      C1889   1.349       .  A
N1883      N1884   1.325       .  A
N1883     Mn2809   2.217       .  S
N1884      C1889   1.356       .  A
N1885      N1886   1.316       .  A
N1885     Mn1887   2.188       .  S
N1886      C1888   1.347       .  A
Mn1887     N2775   2.184   1_545  S
Mn1887     N2781   2.194   1_545  S
Mn1887    Cl1911   2.511       .  S
C1888      C2621   1.468       .  S
C1889      C2635   1.474       .  S
N1890      N1891   1.327       .  A
N1890      N1896   1.315       .  A
N1890     Mn1898   2.222       .  S
N1891      C1899   1.358       .  A
N1892      N1894   1.316       .  A
N1892      N1893   1.315       .  A
N1892     Mn2810   2.187       .  S
N1893      C1900   1.347       .  A
N1894      N1895   1.324       .  A
N1894     Mn2798   2.214       .  S
N1895      C1900   1.355       .  A
N1896      N1897   1.316       .  A
N1896     Mn1910   2.188   1_545  S
N1897      C1899   1.348       .  A
Mn1898     N2769   2.226   1_545  S
Mn1898     N2794   2.200   1_545  S
Mn1898    Cl1911   2.581       .  S
C1899      C2534   1.476       .  S
C1900      C2548   1.466       .  S
N1901      N1902   1.326       .  A
N1901      N1907   1.313       .  A
N1901     Mn2809   2.211       .  S
N1902      C1912   1.358       .  A
N1903      N1904   1.317       .  A
N1903      N1905   1.316       .  A
N1903     Mn1910   2.192   1_545  S
N1904      C1913   1.351       .  A
N1905      N1906   1.326       .  A
N1905     Mn1909   2.232   1_545  S
N1906      C1913   1.360       .  A
N1907      N1908   1.312       .  A
N1907     Mn2810   2.179       .  S
N1908      C1912   1.349       .  A
Mn1909     N2783   2.224       .  S
Mn1909     N2801   2.210       .  S
Mn1909    Cl1911   2.584   1_565  S
Mn1910     N2792   2.186       .  S
Mn1910     N2807   2.180       .  S
Mn1910    Cl1911   2.507   1_565  S
C1912      C2576   1.481       .  S
C1913      C2562   1.491       .  S
N1914      C1919   1.353       .  A
N1914      C1918   1.354       .  A
N1914      H1946   1.039       .  S
N1915      C1922   1.352       .  A
N1915      C1923   1.350       .  A
N1916      C1921   1.356       .  A
N1916      C1920   1.350       .  A
N1916      H1947   1.037       .  S
N1917      C1924   1.347       .  A
N1917      C1925   1.348       .  A
C1918      C1926   1.385       .  A
C1918      C1934   1.414       .  A
C1919      C1935   1.417       .  A
C1919      C1927   1.388       .  A
C1920      C1928   1.386       .  A
C1920      C1937   1.412       .  A
C1921      C1936   1.418       .  A
C1921      C1929   1.387       .  A
C1922      C1934   1.409       .  A
C1922      C1930   1.386       .  A
C1923      C1937   1.409       .  A
C1923      C1931   1.386       .  A
C1924      C1932   1.387       .  A
C1924      C1935   1.409       .  A
C1925      C1933   1.385       .  A
C1925      C1936   1.408       .  A
C1926      C1927   1.375       .  A
C1926      H1938   1.083       .  S
C1927      H1939   1.082       .  S
C1928      C1929   1.377       .  A
C1928      H1940   1.082       .  S
C1929      H1941   1.082       .  S
C1930      C1931   1.373       .  A
C1930      H1942   1.082       .  S
C1931      H1943   1.082       .  S
C1932      C1933   1.373       .  A
C1932      H1944   1.082       .  S
C1933      H1945   1.082       .  S
C1934      C2520   1.487       .  S
C1935      C2551   1.480       .  S
C1936      C2537   1.487       .  S
C1937      C2509   1.476       .  S
N1948      C1953   1.352       .  A
N1948      C1952   1.350       .  A
N1948      H1980   1.039       .  S
N1949      C1956   1.344       .  A
N1949      C1957   1.346       .  A
N1950      C1955   1.349       .  A
N1950      C1954   1.354       .  A
N1950      H1981   1.039       .  S
N1951      C1958   1.350       .  A
N1951      C1959   1.349       .  A
C1952      C1960   1.389       .  A
C1952      C1968   1.413       .  A
C1953      C1969   1.410       .  A
C1953      C1961   1.385       .  A
C1954      C1962   1.387       .  A
C1954      C1971   1.413       .  A
C1955      C1970   1.411       .  A
C1955      C1963   1.387       .  A
C1956      C1968   1.403       .  A
C1956      C1964   1.386       .  A
C1957      C1971   1.403       .  A
C1957      C1965   1.386       .  A
C1958      C1966   1.385       .  A
C1958      C1969   1.408       .  A
C1959      C1967   1.386       .  A
C1959      C1970   1.408       .  A
C1960      C1961   1.375       .  A
C1960      H1972   1.082       .  S
C1961      H1973   1.082       .  S
C1962      C1963   1.376       .  A
C1962      H1974   1.082       .  S
C1963      H1975   1.082       .  S
C1964      C1965   1.372       .  A
C1964      H1976   1.082       .  S
C1965      H1977   1.082       .  S
C1966      C1967   1.373       .  A
C1966      H1978   1.082       .  S
C1967      H1979   1.082       .  S
C1968      C2481   1.469       .  S
C1969      C2565   1.482       .  S
C1970      C2579   1.477       .  S
C1971      C2492   1.479       .  S
N1982      N1983   1.311       .  A
N1982      N1988   1.316       .  A
N1983      C1990   1.342       .  A
N1984      N1986   1.317       .  A
N1984      N1985   1.314       .  A
N1984     Mn2000   2.181       .  S
N1985      C1991   1.342       .  A
N1986      N1987   1.330       .  A
N1987      C1991   1.365       .  A
N1988      N1989   1.334       .  A
N1988     Mn2000   2.251       .  S
N1989      C1990   1.368       .  A
C1990      C2660   1.495       .  S
C1991      C2422   1.476       .  S
N1992      N1998   1.317       .  A
N1992      N1993   1.329       .  A
N1993      C2001   1.361       .  A
N1994      N1995   1.329       .  A
N1994      N1996   1.316       .  A
N1994     Mn2900   2.229   1_545  S
N1995      C2002   1.364       .  A
N1996      N1997   1.310       .  A
N1997      C2002   1.340       .  A
N1998      N1999   1.317       .  A
N1998     Mn2900   2.197   1_545  S
N1999      C2001   1.346       .  A
Mn2000     N2894   2.240       .  S
Mn2000     N2898   2.182       .  S
C2001      C2450   1.482       .  S
C2002      C2646   1.468       .  S
N2003      N2004   1.329       .  A
N2003      N2009   1.316       .  A
N2003     Mn2011   2.239       .  S
N2004      C2012   1.364       .  A
N2005      N2007   1.319       .  A
N2005      N2006   1.334       .  A
N2005     Mn2023   2.266       .  S
N2006      C2013   1.367       .  A
N2007      N2008   1.315       .  A
N2007     Mn2011   2.188       .  S
N2008      C2013   1.342       .  A
N2009      N2010   1.316       .  A
N2009     Mn2023   2.183       .  S
N2010      C2012   1.345       .  A
Mn2011    Cl2024   2.548       .  S
C2012      C2436   1.482       .  S
C2013      C2607   1.487       .  S
N2014      N2015   1.313       .  A
N2014      N2020   1.317       .  A
N2014     Mn2022   2.181       .  S
N2015      C2025   1.342       .  A
N2016      N2017   1.313       .  A
N2016      N2018   1.317       .  A
N2016     Mn2923   2.178       .  S
N2017      C2026   1.342       .  A
N2018      N2019   1.329       .  A
N2018     Mn2022   2.237       .  S
N2019      C2026   1.362       .  A
N2020      N2021   1.332       .  A
N2020     Mn2923   2.241       .  S
N2021      C2025   1.364       .  A
Mn2022    Cl2924   2.545       .  S
Mn2023     N2916   2.195       .  S
Mn2023     N2920   2.234       .  S
Mn2023    Cl2024   2.556       .  S
Cl2024    Mn2922   2.542       .  S
C2025      C2590   1.482       .  S
C2026      C2464   1.472       .  S
N2027      N2028   1.328       .  A
N2027      N2033   1.318       .  A
N2028      C2035   1.360       .  A
N2029      N2031   1.316       .  A
N2029      N2030   1.319       .  A
N2029     Mn2045   2.200       .  S
N2030      C2036   1.350       .  A
N2031      N2032   1.323       .  A
N2031     Mn2056   2.209   1_556  S
N2032      C2036   1.354       .  A
N2033      N2034   1.319       .  A
N2034      C2035   1.350       .  A
C2035      C2411   1.486       .  S
C2036      C2394   1.472       .  S
N2037      N2043   1.314       .  A
N2037      N2038   1.321       .  A
N2037     Mn2067   2.197       .  S
N2038      C2046   1.355       .  A
N2039      N2040   1.320       .  A
N2039      N2041   1.316       .  A
N2040      C2047   1.353       .  A
N2041      N2042   1.322       .  A
N2042      C2047   1.357       .  A
N2043      N2044   1.317       .  A
N2043     Mn2045   2.190       .  S
N2044      C2046   1.350       .  A
Mn2045    Cl2069   2.518       .  S
C2046      C2366   1.477       .  S
C2047      C2380   1.489       .  S
N2048      N2049   1.325       .  A
N2048      N2054   1.315       .  A
N2048     Mn2056   2.217       .  S
N2049      C2057   1.356       .  A
N2050      N2052   1.315       .  A
N2050      N2051   1.315       .  A
N2051      C2058   1.349       .  A
N2052      N2053   1.328       .  A
N2053      C2058   1.360       .  A
N2054      N2055   1.319       .  A
N2054     Mn2068   2.203       .  S
N2055      C2057   1.353       .  A
Mn2056    Cl2069   2.587   1_554  S
C2057      C2313   1.486       .  S
C2058      C2327   1.485       .  S
N2059      N2060   1.323       .  A
N2059      N2065   1.315       .  A
N2060      C2070   1.354       .  A
N2061      N2062   1.316       .  A
N2061      N2063   1.316       .  A
N2061     Mn2068   2.202       .  S
N2062      C2071   1.351       .  A
N2063      N2064   1.330       .  A
N2063     Mn2067   2.234   1_554  S
N2064      C2071   1.360       .  A
N2065      N2066   1.313       .  A
N2066      C2070   1.349       .  A
Mn2067    Cl2069   2.585       .  S
Mn2068    Cl2069   2.511   1_554  S
C2070      C2352   1.468       .  S
C2071      C2338   1.492       .  S
N2072      C2077   1.352       .  A
N2072      C2076   1.353       .  A
N2072      H2104   1.040       .  S
N2073      C2080   1.352       .  A
N2073      C2081   1.352       .  A
N2074      C2079   1.355       .  A
N2074      C2078   1.351       .  A
N2074      H2105   1.039       .  S
N2075      C2082   1.350       .  A
N2075      C2083   1.352       .  A
C2076      C2084   1.386       .  A
C2076      C2092   1.412       .  A
C2077      C2093   1.414       .  A
C2077      C2085   1.388       .  A
C2078      C2086   1.387       .  A
C2078      C2095   1.415       .  A
C2079      C2094   1.415       .  A
C2079      C2087   1.386       .  A
C2080      C2092   1.412       .  A
C2080      C2088   1.385       .  A
C2081      C2095   1.414       .  A
C2081      C2089   1.386       .  A
C2082      C2090   1.388       .  A
C2082      C2093   1.416       .  A
C2083      C2091   1.385       .  A
C2083      C2094   1.414       .  A
C2084      C2085   1.376       .  A
C2084      H2096   1.083       .  S
C2085      H2097   1.082       .  S
C2086      C2087   1.376       .  A
C2086      H2098   1.082       .  S
C2087      H2099   1.082       .  S
C2088      C2089   1.376       .  A
C2088      H2100   1.082       .  S
C2089      H2101   1.082       .  S
C2090      C2091   1.376       .  A
C2090      H2102   1.082       .  S
C2091      H2103   1.082       .  S
C2092      C2383   1.487       .  S
C2093      C2296   1.488       .  S
C2094      C2282   1.491       .  S
C2095      C2369   1.490       .  S
N2106      C2111   1.355       .  A
N2106      C2110   1.356       .  A
N2106      H2138   1.041       .  S
N2107      C2114   1.349       .  A
N2107      C2115   1.350       .  A
N2108      C2113   1.353       .  A
N2108      C2112   1.353       .  A
N2108      H2139   1.040       .  S
N2109      C2116   1.353       .  A
N2109      C2117   1.355       .  A
C2110      C2118   1.386       .  A
C2110      C2126   1.418       .  A
C2111      C2127   1.421       .  A
C2111      C2119   1.389       .  A
C2112      C2120   1.387       .  A
C2112      C2129   1.415       .  A
C2113      C2128   1.414       .  A
C2113      C2121   1.386       .  A
C2114      C2126   1.410       .  A
C2114      C2122   1.387       .  A
C2115      C2129   1.410       .  A
C2115      C2123   1.385       .  A
C2116      C2124   1.386       .  A
C2116      C2127   1.418       .  A
C2117      C2125   1.386       .  A
C2117      C2128   1.419       .  A
C2118      C2119   1.375       .  A
C2118      H2130   1.082       .  S
C2119      H2131   1.082       .  S
C2120      C2121   1.376       .  A
C2120      H2132   1.082       .  S
C2121      H2133   1.082       .  S
C2122      C2123   1.374       .  A
C2122      H2134   1.083       .  S
C2123      H2135   1.082       .  S
C2124      C2125   1.378       .  A
C2124      H2136   1.082       .  S
C2125      H2137   1.082       .  S
C2126      C2397   1.487       .  S
C2127      C2254   1.502       .  S
C2128      C2271   1.501       .  S
C2129      C2408   1.486       .  S
N2140      N2141   1.324       .  A
N2140      N2146   1.314       .  A
N2140     Mn2169   2.212       .  S
N2141      C2148   1.356       .  A
N2142      N2144   1.313       .  A
N2142      N2143   1.314       .  A
N2142     Mn3058   2.176       .  S
N2143      C2149   1.348       .  A
N2144      N2145   1.323       .  A
N2144     Mn3069   2.200       .  S
N2145      C2149   1.355       .  A
N2146      N2147   1.315       .  A
N2146     Mn2158   2.181       .  S
N2147      C2148   1.348       .  A
C2148      C2495   1.469       .  S
C2149      C2478   1.466       .  S
N2150      N2156   1.315       .  A
N2150      N2151   1.324       .  A
N2150     Mn3080   2.210       .  S
N2151      C2159   1.357       .  A
N2152      N2153   1.314       .  A
N2152      N2154   1.311       .  A
N2153      C2160   1.347       .  A
N2154      N2155   1.326       .  A
N2154     Mn2180   2.220       .  S
N2155      C2160   1.361       .  A
N2156      N2157   1.316       .  A
N2157      C2159   1.351       .  A
Mn2158     N3042   2.170       .  S
Mn2158    Cl2182   2.532       .  S
C2159      C2506   1.484       .  S
C2160      C2523   1.486       .  S
N2161      N2162   1.319       .  A
N2161      N2167   1.318       .  A
N2161     Mn3069   2.207       .  S
N2162      C2170   1.352       .  A
N2163      N2165   1.318       .  A
N2163      N2164   1.325       .  A
N2163     Mn2181   2.229       .  S
N2164      C2171   1.358       .  A
N2165      N2166   1.319       .  A
N2165     Mn2169   2.206       .  S
N2166      C2171   1.352       .  A
N2167      N2168   1.322       .  A
N2167     Mn3081   2.207       .  S
N2168      C2170   1.354       .  A
Mn2169     N3044   2.218       .  S
Mn2169     N3061   2.204       .  S
Mn2169    Cl2182   2.552       .  S
C2170      C2257   1.485       .  S
C2171      C2285   1.479       .  S
N2172      N2173   1.316       .  A
N2172      N2178   1.317       .  A
N2172     Mn2180   2.185       .  S
N2173      C2183   1.349       .  A
N2174      N2175   1.322       .  A
N2174      N2176   1.318       .  A
N2175      C2184   1.358       .  A
N2176      N2177   1.324       .  A
N2176     Mn3080   2.217       .  S
N2177      C2184   1.355       .  A
N2178      N2179   1.321       .  A
N2179      C2183   1.355       .  A
Mn2180     N3050   2.214       .  S
Mn2180     N3076   2.201       .  S
Mn2181     N3067   2.218       .  S
Mn2181    Cl2182   2.549       .  S
C2183      C2299   1.470       .  S
C2184      C2268   1.493       .  S
N2185      C2190   1.349       .  A
N2185      C2189   1.351       .  A
N2185      H2217   1.034       .  S
N2186      C2193   1.352       .  A
N2186      C2194   1.349       .  A
N2187      C2192   1.357       .  A
N2187      C2191   1.356       .  A
N2187      H2218   1.040       .  S
N2188      C2195   1.352       .  A
N2188      C2196   1.352       .  A
C2189      C2197   1.387       .  A
C2189      C2205   1.412       .  A
C2190      C2206   1.411       .  A
C2190      C2198   1.387       .  A
C2191      C2199   1.388       .  A
C2191      C2208   1.421       .  A
C2192      C2207   1.419       .  A
C2192      C2200   1.385       .  A
C2193      C2205   1.416       .  A
C2193      C2201   1.386       .  A
C2194      C2208   1.412       .  A
C2194      C2202   1.387       .  A
C2195      C2203   1.387       .  A
C2195      C2206   1.415       .  A
C2196      C2204   1.386       .  A
C2196      C2207   1.411       .  A
C2197      C2198   1.375       .  A
C2197      H2209   1.082       .  S
C2198      H2210   1.082       .  S
C2199      C2200   1.380       .  A
C2199      H2211   1.082       .  S
C2200      H2212   1.082       .  S
C2201      C2202   1.373       .  A
C2201      H2213   1.082       .  S
C2202      H2214   1.082       .  S
C2203      C2204   1.368       .  A
C2203      H2215   1.082       .  S
C2204      H2216   1.083       .  S
C2205      C2324   1.485       .  S
C2206      C2310   1.477       .  S
C2207      C2467   1.495       .  S
C2208      C2453   1.488       .  S
N2219      C2224   1.359       .  A
N2219      C2223   1.357       .  A
N2219      H2251   1.040       .  S
N2220      C2227   1.351       .  A
N2220      C2228   1.354       .  A
N2221      C2226   1.347       .  A
N2221      C2225   1.350       .  A
N2221      H2252   1.037       .  S
N2222      C2229   1.352       .  A
N2222      C2230   1.353       .  A
C2223      C2231   1.387       .  A
C2223      C2239   1.424       .  A
C2224      C2240   1.424       .  A
C2224      C2232   1.386       .  A
C2225      C2233   1.387       .  A
C2225      C2242   1.409       .  A
C2226      C2241   1.407       .  A
C2226      C2234   1.387       .  A
C2227      C2239   1.415       .  A
C2227      C2235   1.388       .  A
C2228      C2242   1.415       .  A
C2228      C2236   1.385       .  A
C2229      C2237   1.387       .  A
C2229      C2240   1.416       .  A
C2230      C2238   1.386       .  A
C2230      C2241   1.414       .  A
C2231      C2232   1.381       .  A
C2231      H2243   1.082       .  S
C2232      H2244   1.082       .  S
C2233      C2234   1.375       .  A
C2233      H2245   1.082       .  S
C2234      H2246   1.082       .  S
C2235      C2236   1.371       .  A
C2235      H2247   1.082       .  S
C2236      H2248   1.082       .  S
C2237      C2238   1.371       .  A
C2237      H2249   1.082       .  S
C2238      H2250   1.082       .  S
C2239      C2439   1.491       .  S
C2240      C2425   1.503       .  S
C2241      C2355   1.476       .  S
C2242      C2341   1.486       .  S
C2253      C2254   1.407       .  A
C2253      C2258   1.400       .  A
C2253      H2260   1.084       .  S
C2254      C2255   1.415       .  A
C2255      C2256   1.402       .  A
C2255      N2262   1.429       .  S
C2256      C2257   1.403       .  A
C2256      H2261   1.084       .  S
C2257      C2258   1.413       .  A
C2258      N2259   1.429       .  S
N2259      O2263   1.261       .  A
N2259      O2264   1.262       .  A
N2262      O2266   1.262       .  A
N2262      O2265   1.262       .  A
C2267      C2268   1.405       .  A
C2267      C2272   1.402       .  A
C2267      H2274   1.083       .  S
C2268      C2269   1.415       .  A
C2269      C2270   1.406       .  A
C2269      N2276   1.428       .  S
C2270      C2271   1.404       .  A
C2270      H2275   1.084       .  S
C2271      C2272   1.414       .  A
C2272      N2273   1.429       .  S
N2273      O2277   1.262       .  A
N2273      O2278   1.262       .  A
N2276      O2280   1.262       .  A
N2276      O2279   1.262       .  A
C2281      C2282   1.405       .  A
C2281      C2286   1.405       .  A
C2281      H2288   1.084       .  S
C2282      C2283   1.409       .  A
C2283      C2284   1.401       .  A
C2283      N2290   1.429       .  S
C2284      C2285   1.405       .  A
C2284      H2289   1.084       .  S
C2285      C2286   1.409       .  A
C2286      N2287   1.428       .  S
N2287      O2291   1.262       .  A
N2287      O2292   1.262       .  A
N2290      O2294   1.262       .  A
N2290      O2293   1.262       .  A
C2295      C2296   1.400       .  A
C2295      C2300   1.394       .  A
C2295      H2302   1.084       .  S
C2296      C2297   1.414       .  A
C2297      C2298   1.401       .  A
C2297      N2304   1.429       .  S
C2298      C2299   1.399       .  A
C2298      H2303   1.084       .  S
C2299      C2300   1.413       .  A
C2300      N2301   1.429       .  S
N2301      O2305   1.262       .  A
N2301      O2306   1.261       .  A
N2304      O2308   1.262       .  A
N2304      O2307   1.262       .  A
C2309      C2310   1.389       .  A
C2309      C2314   1.388       .  A
C2309      H2316   1.085       .  S
C2310      C2311   1.406       .  A
C2311      C2312   1.409       .  A
C2311      N2318   1.428       .  S
C2312      C2313   1.410       .  A
C2312      H2317   1.083       .  S
C2313      C2314   1.412       .  A
C2314      N2315   1.419       .  S
N2315      O2319   1.262       .  A
N2315      O2320   1.262       .  A
N2318      O2322   1.262       .  A
N2318      O2321   1.262       .  A
C2323      C2324   1.402       .  A
C2323      C2328   1.406       .  A
C2323      H2330   1.084       .  S
C2324      C2325   1.403       .  A
C2325      C2326   1.396       .  A
C2325      N2332   1.429       .  S
C2326      C2327   1.408       .  A
C2326      H2331   1.084       .  S
C2327      C2328   1.415       .  A
C2328      N2329   1.427       .  S
N2329      O2333   1.262       .  A
N2329      O2334   1.262       .  A
N2332      O2336   1.262       .  A
N2332      O2335   1.262       .  A
C2337      C2338   1.401       .  A
C2337      C2342   1.395       .  A
C2337      H2344   1.069       .  S
C2338      C2339   1.413       .  A
C2339      C2340   1.410       .  A
C2339      N2346   1.426       .  S
C2340      C2341   1.404       .  A
C2340      H2345   1.083       .  S
C2341      C2342   1.402       .  A
C2342      N2343   1.431       .  S
N2343      O2347   1.262       .  A
N2343      O2348   1.262       .  A
N2346      O2350   1.262       .  A
N2346      O2349   1.262       .  A
C2351      C2352   1.401       .  A
C2351      C2356   1.390       .  A
C2351      H2358   1.084       .  S
C2352      C2353   1.411       .  A
C2353      C2354   1.402       .  A
C2353      N2360   1.428       .  S
C2354      C2355   1.401       .  A
C2354      H2359   1.084       .  S
C2355      C2356   1.404       .  A
C2356      N2357   1.428       .  S
N2357      O2361   1.262       .  A
N2357      O2362   1.261       .  A
N2360      O2364   1.262       .  A
N2360      O2363   1.262       .  A
C2365      C2366   1.403       .  A
C2365      C2370   1.400       .  A
C2365      H2372   1.084       .  S
C2366      C2367   1.412       .  A
C2367      C2368   1.398       .  A
C2367      N2374   1.431       .  S
C2368      C2369   1.405       .  A
C2368      H2373   1.084       .  S
C2369      C2370   1.411       .  A
C2370      N2371   1.428       .  S
N2371      O2375   1.262       .  A
N2371      O2376   1.262       .  A
N2374      O2378   1.262       .  A
N2374      O2377   1.262       .  A
C2379      C2380   1.408       .  A
C2379      C2384   1.403       .  A
C2379      H2386   1.083       .  S
C2380      C2381   1.417       .  A
C2381      C2382   1.398       .  A
C2381      N2388   1.429       .  S
C2382      C2383   1.400       .  A
C2382      H2387   1.084       .  S
C2383      C2384   1.407       .  A
C2384      N2385   1.428       .  S
N2385      O2389   1.262       .  A
N2385      O2390   1.262       .  A
N2388      O2392   1.262       .  A
N2388      O2391   1.262       .  A
C2393      C2394   1.402       .  A
C2393      C2398   1.403       .  A
C2393      H2400   1.084       .  S
C2394      C2395   1.409       .  A
C2395      C2396   1.396       .  A
C2395      N2402   1.429       .  S
C2396      C2397   1.401       .  A
C2396      H2401   1.084       .  S
C2397      C2398   1.410       .  A
C2398      N2399   1.427       .  S
N2399      O2403   1.262       .  A
N2399      O2404   1.262       .  A
N2402      O2406   1.260       .  A
N2402      O2405   1.262       .  A
C2407      C2408   1.400       .  A
C2407      C2412   1.402       .  A
C2407      H2414   1.084       .  S
C2408      C2409   1.406       .  A
C2409      C2410   1.405       .  A
C2409      N2416   1.430       .  S
C2410      C2411   1.409       .  A
C2410      H2415   1.084       .  S
C2411      C2412   1.411       .  A
C2412      N2413   1.427       .  S
N2413      O2417   1.262       .  A
N2413      O2418   1.262       .  A
N2416      O2420   1.262       .  A
N2416      O2419   1.262       .  A
C2421      C2422   1.403       .  A
C2421      C2426   1.406       .  A
C2421      H2428   1.084       .  S
C2422      C2423   1.409       .  A
C2423      C2424   1.403       .  A
C2423      N2430   1.429       .  S
C2424      C2425   1.408       .  A
C2424      H2429   1.084       .  S
C2425      C2426   1.414       .  A
C2426      N2427   1.428       .  S
N2427      O2431   1.261       .  A
N2427      O2432   1.262       .  A
N2430      O2434   1.261       .  A
N2430      O2433   1.262       .  A
C2435      C2436   1.403       .  A
C2435      C2440   1.407       .  A
C2435      H2442   1.084       .  S
C2436      C2437   1.413       .  A
C2437      C2438   1.398       .  A
C2437      N2444   1.427       .  S
C2438      C2439   1.398       .  A
C2438      H2443   1.084       .  S
C2439      C2440   1.413       .  A
C2440      N2441   1.427       .  S
N2441      O2445   1.262       .  A
N2441      O2446   1.262       .  A
N2444      O2448   1.262       .  A
N2444      O2447   1.262       .  A
C2449      C2450   1.405       .  A
C2449      C2454   1.401       .  A
C2449      H2456   1.084       .  S
C2450      C2451   1.412       .  A
C2451      C2452   1.406       .  A
C2451      N2458   1.427       .  S
C2452      C2453   1.401       .  A
C2452      H2457   1.084       .  S
C2453      C2454   1.407       .  A
C2454      N2455   1.431       .  S
N2455      O2459   1.262       .  A
N2455      O2460   1.262       .  A
N2458      O2462   1.262       .  A
N2458      O2461   1.262       .  A
C2463      C2464   1.403       .  A
C2463      C2468   1.407       .  A
C2463      H2470   1.084       .  S
C2464      C2465   1.408       .  A
C2465      C2466   1.397       .  A
C2465      N2472   1.430       .  S
C2466      C2467   1.404       .  A
C2466      H2471   1.084       .  S
C2467      C2468   1.412       .  A
C2468      N2469   1.428       .  S
N2469      O2473   1.262       .  A
N2469      O2474   1.262       .  A
N2472      O2476   1.261       .  A
N2472      O2475   1.262       .  A
C2477      C2478   1.405       .  A
C2477      C2482   1.394       .  A
C2477      H2484   1.084       .  S
C2478      C2479   1.410       .  A
C2479      C2480   1.396       .  A
C2479      N2486   1.427       .  S
C2480      C2481   1.397       .  A
C2480      H2485   1.084       .  S
C2481      C2482   1.403       .  A
C2482      N2483   1.429       .  S
N2483      O2487   1.262       .  A
N2483      O2488   1.262       .  A
N2486      O2490   1.262       .  A
N2486      O2489   1.262       .  A
C2491      C2492   1.401       .  A
C2491      C2496   1.401       .  A
C2491      H2498   1.084       .  S
C2492      C2493   1.407       .  A
C2493      C2494   1.395       .  A
C2493      N2500   1.429       .  S
C2494      C2495   1.402       .  A
C2494      H2499   1.084       .  S
C2495      C2496   1.409       .  A
C2496      N2497   1.428       .  S
N2497      O2501   1.262       .  A
N2497      O2502   1.262       .  A
N2500      O2504   1.262       .  A
N2500      O2503   1.262       .  A
C2505      C2506   1.408       .  A
C2505      C2510   1.395       .  A
C2505      H2512   1.084       .  S
C2506      C2507   1.416       .  A
C2507      C2508   1.402       .  A
C2507      N2514   1.427       .  S
C2508      C2509   1.397       .  A
C2508      H2513   1.084       .  S
C2509      C2510   1.402       .  A
C2510      N2511   1.430       .  S
N2511      O2516   1.262       .  A
N2514      O2518   1.262       .  A
N2514      O2517   1.262       .  A
C2519      C2520   1.396       .  A
C2519      C2524   1.391       .  A
C2519      H2526   1.085       .  S
C2520      C2521   1.411       .  A
C2521      C2522   1.406       .  A
C2521      N2528   1.428       .  S
C2522      C2523   1.407       .  A
C2522      H2527   1.083       .  S
C2523      C2524   1.418       .  A
C2524      N2525   1.429       .  S
N2525      O2529   1.262       .  A
N2525      O2530   1.262       .  A
N2528      O2532   1.262       .  A
N2528      O2531   1.262       .  A
C2533      C2534   1.402       .  A
C2533      C2538   1.396       .  A
C2533      H2540   1.084       .  S
C2534      C2535   1.411       .  A
C2535      C2536   1.406       .  A
C2535      N2542   1.428       .  S
C2536      C2537   1.403       .  A
C2536      H2541   1.084       .  S
C2537      C2538   1.407       .  A
C2538      N2539   1.427       .  S
N2539      O2543   1.262       .  A
N2539      O2544   1.261       .  A
N2542      O2546   1.262       .  A
N2542      O2545   1.262       .  A
C2547      C2548   1.401       .  A
C2547      C2552   1.401       .  A
C2547      H2554   1.084       .  S
C2548      C2549   1.409       .  A
C2549      C2550   1.393       .  A
C2549      N2556   1.429       .  S
C2550      C2551   1.399       .  A
C2550      H2555   1.084       .  S
C2551      C2552   1.409       .  A
C2552      N2553   1.428       .  S
N2553      O2557   1.262       .  A
N2553      O2558   1.262       .  A
N2556      O2560   1.261       .  A
N2556      O2559   1.262       .  A
C2561      C2562   1.411       .  A
C2561      C2566   1.399       .  A
C2561      H2568   1.083       .  S
C2562      C2563   1.416       .  A
C2563      C2564   1.403       .  A
C2563      N2570   1.427       .  S
C2564      C2565   1.399       .  A
C2564      H2569   1.084       .  S
C2565      C2566   1.404       .  A
C2566      N2567   1.431       .  S
N2567      O2571   1.262       .  A
N2567      O2572   1.262       .  A
N2570      O2574   1.262       .  A
N2570      O2573   1.262       .  A
C2575      C2576   1.406       .  A
C2575      C2580   1.389       .  A
C2575      H2582   1.083       .  S
C2576      C2577   1.415       .  A
C2577      C2578   1.404       .  A
C2577      N2584   1.428       .  S
C2578      C2579   1.402       .  A
C2578      H2583   1.084       .  S
C2579      C2580   1.403       .  A
C2580      N2581   1.430       .  S
N2581      O2585   1.262       .  A
N2581      O2586   1.262       .  A
N2584      O2588   1.262       .  A
N2584      O2587   1.262       .  A
C2589      C2590   1.402       .  A
C2589      C2594   1.394       .  A
C2589      H2596   1.075       .  S
C2590      C2591   1.411       .  A
C2591      C2592   1.409       .  A
C2591      N2598   1.426       .  S
C2592      C2593   1.405       .  A
C2592      H2597   1.083       .  S
C2593      C2594   1.406       .  A
C2594      N2595   1.430       .  S
N2595      O2599   1.262       .  A
N2595      O2600   1.262       .  A
N2598      O2602   1.262       .  A
N2598      O2601   1.262       .  A
C2603      C2604   1.406       .  A
C2603      C2608   1.403       .  A
C2603      H2610   1.084       .  S
C2604      C2605   1.415       .  A
C2605      C2606   1.413       .  A
C2605      N2612   1.428       .  S
C2606      C2607   1.407       .  A
C2606      H2611   1.084       .  S
C2607      C2608   1.410       .  A
C2608      N2609   1.428       .  S
N2609      O2613   1.261       .  A
N2609      O2614   1.262       .  A
N2612      O2616   1.262       .  A
N2612      O2615   1.262       .  A
C2617      C2618   1.401       .  A
C2617      C2622   1.396       .  A
C2617      H2624   1.084       .  S
C2618      C2619   1.412       .  A
C2619      C2620   1.403       .  A
C2619      N2626   1.428       .  S
C2620      C2621   1.400       .  A
C2620      H2625   1.084       .  S
C2621      C2622   1.408       .  A
C2622      N2623   1.428       .  S
N2623      O2627   1.260       .  A
N2623      O2628   1.262       .  A
N2626      O2630   1.262       .  A
N2626      O2629   1.262       .  A
C2631      C2632   1.395       .  A
C2631      C2636   1.392       .  A
C2631      H2638   1.084       .  S
C2632      C2633   1.406       .  A
C2633      C2634   1.404       .  A
C2633      N2640   1.429       .  S
C2634      C2635   1.406       .  A
C2634      H2639   1.084       .  S
C2635      C2636   1.413       .  A
C2636      N2637   1.428       .  S
N2637      O2641   1.261       .  A
N2637      O2642   1.261       .  A
N2640      O2644   1.262       .  A
N2640      O2643   1.262       .  A
C2645      C2646   1.399       .  A
C2645      C2650   1.405       .  A
C2645      H2652   1.084       .  S
C2646      C2647   1.407       .  A
C2647      C2648   1.401       .  A
C2647      N2654   1.431       .  S
C2648      C2649   1.408       .  A
C2648      H2653   1.084       .  S
C2649      C2650   1.415       .  A
C2650      N2651   1.427       .  S
N2651      O2655   1.262       .  A
N2651      O2656   1.261       .  A
N2654      O2658   1.262       .  A
C2659      C2660   1.412       .  A
C2659      C2664   1.398       .  A
C2659      H2666   1.083       .  S
C2660      C2661   1.411       .  A
C2661      C2662   1.409       .  A
C2661      N2668   1.427       .  S
C2662      C2663   1.410       .  A
C2662      H2667   1.084       .  S
C2663      C2664   1.406       .  A
C2664      N2665   1.430       .  S
N2665      O2669   1.262       .  A
N2665      O2670   1.262   1_655  A
N2668      O2672   1.262       .  A
N2668      O2671   1.262       .  A
C2673      C2674   1.402       .  A
C2673      C2678   1.402       .  A
C2673      H2680   1.084       .  S
C2674      C2675   1.402       .  A
C2675      C2676   1.387       .  A
C2675      N2682   1.429       .  S
C2676      C2677   1.406       .  A
C2676      H2681   1.083       .  S
C2677      C2678   1.414       .  A
C2678      N2679   1.428       .  S
N2679      O2683   1.262       .  A
N2679      O2684   1.262       .  A
N2682      O2686   1.262       .  A
N2682      O2685   1.262       .  A
C2687      C2688   1.400       .  A
C2687      C2692   1.397       .  A
C2687      H2694   1.084       .  S
C2688      C2689   1.414       .  A
C2689      C2690   1.405       .  A
C2689      N2696   1.429       .  S
C2690      C2691   1.403       .  A
C2690      H2695   1.084       .  S
C2691      C2692   1.415       .  A
C2692      N2693   1.430       .  S
N2693      O2697   1.262       .  A
N2693      O2698   1.262       .  A
N2696      O2700   1.262       .  A
N2696      O2699   1.262       .  A
N2701      C2706   1.358       .  A
N2701      C2705   1.354       .  A
N2701      H2733   1.039       .  S
N2702      C2709   1.356       .  A
N2702      C2710   1.358       .  A
N2703      C2708   1.352       .  A
N2703      C2707   1.357       .  A
N2703      H2734   1.039       .  S
N2704      C2711   1.351       .  A
N2704      C2712   1.349       .  A
C2705      C2713   1.389       .  A
C2705      C2721   1.422       .  A
C2706      C2722   1.418       .  A
C2706      C2714   1.385       .  A
C2707      C2715   1.390       .  A
C2707      C2724   1.422       .  A
C2708      C2723   1.413       .  A
C2708      C2716   1.385       .  A
C2709      C2721   1.426       .  A
C2709      C2717   1.386       .  A
C2710      C2724   1.427       .  A
C2710      C2718   1.386       .  A
C2711      C2719   1.386       .  A
C2711      C2722   1.410       .  A
C2712      C2720   1.386       .  A
C2712      C2723   1.407       .  A
C2713      C2714   1.375       .  A
C2713      H2725   1.082       .  S
C2714      H2726   1.082       .  S
C2715      C2716   1.369       .  A
C2715      H2727   1.079       .  S
C2716      H2728   1.083       .  S
C2717      C2718   1.380       .  A
C2717      H2729   1.082       .  S
C2718      H2730   1.081       .  S
C2719      C2720   1.374       .  A
C2719      H2731   1.082       .  S
C2720      H2732   1.082       .  S
C2721      C3563   1.504       .  S
C2722      C3588   1.495       .  S
C2723      C3574   1.482       .  S
C2724      C3549   1.508       .  S
N2735      C2740   1.355       .  A
N2735      C2739   1.350       .  A
N2735      H2767   1.041       .  S
N2736      C2743   1.354       .  A
N2736      C2744   1.357       .  A
N2737      C2742   1.353       .  A
N2737      C2741   1.355       .  A
N2737      H2768   1.040       .  S
N2738      C2745   1.349       .  A
N2738      C2746   1.347       .  A
C2739      C2747   1.388       .  A
C2739      C2755   1.413       .  A
C2740      C2756   1.414       .  A
C2740      C2748   1.386       .  A
C2741      C2749   1.386       .  A
C2741      C2758   1.415       .  A
C2742      C2757   1.416       .  A
C2742      C2750   1.388       .  A
C2743      C2755   1.422       .  A
C2743      C2751   1.387       .  A
C2744      C2758   1.421       .  A
C2744      C2752   1.385       .  A
C2745      C2753   1.386       .  A
C2745      C2756   1.409       .  A
C2746      C2754   1.386       .  A
C2746      C2757   1.407       .  A
C2747      C2748   1.377       .  A
C2747      H2759   1.082       .  S
C2748      H2760   1.082       .  S
C2749      C2750   1.374       .  A
C2749      H2761   1.082       .  S
C2750      H2762   1.082       .  S
C2751      C2752   1.382       .  A
C2751      H2763   1.082       .  S
C2752      H2764   1.082       .  S
C2753      C2754   1.375       .  A
C2753      H2765   1.082       .  S
C2754      H2766   1.082       .  S
C2755      C3493   1.497       .  S
C2756      C3518   1.491       .  S
C2757      C3532   1.480       .  S
C2758      C3504   1.504       .  S
N2769      N2770   1.324       .  A
N2769      N2775   1.315       .  A
N2770      C2777   1.359       .  A
N2771      N2773   1.314       .  A
N2771      N2772   1.309       .  A
N2771     Mn2787   2.170       .  S
N2772      C2778   1.345       .  A
N2773      N2774   1.328       .  A
N2773     Mn2798   2.218       .  S
N2774      C2778   1.360       .  A
N2775      N2776   1.318       .  A
N2776      C2777   1.350       .  A
C2777      C3591   1.486       .  S
C2778      C3577   1.479       .  S
N2779      N2785   1.314       .  A
N2779      N2780   1.326       .  A
N2779     Mn2809   2.219       .  S
N2780      C2788   1.359       .  A
N2781      N2782   1.317       .  A
N2781      N2783   1.316       .  A
N2782      C2789   1.349       .  A
N2783      N2784   1.326       .  A
N2784      C2789   1.357       .  A
N2785      N2786   1.314       .  A
N2785     Mn2787   2.172       .  S
N2786      C2788   1.344       .  A
Mn2787    Cl2811   2.502       .  S
C2788      C3521   1.468       .  S
C2789      C3535   1.477       .  S
N2790      N2791   1.327       .  A
N2790      N2796   1.314       .  A
N2790     Mn2798   2.215       .  S
N2791      C2799   1.358       .  A
N2792      N2794   1.316       .  A
N2792      N2793   1.315       .  A
N2793      C2800   1.347       .  A
N2794      N2795   1.323       .  A
N2795      C2800   1.354       .  A
N2796      N2797   1.312       .  A
N2796     Mn2810   2.182       .  S
N2797      C2799   1.348       .  A
Mn2798    Cl2811   2.584       .  S
C2799      C3434   1.479       .  S
C2800      C3448   1.462       .  S
N2801      N2802   1.326       .  A
N2801      N2807   1.313       .  A
N2802      C2812   1.359       .  A
N2803      N2804   1.319       .  A
N2803      N2805   1.316       .  A
N2803     Mn2810   2.199       .  S
N2804      C2813   1.352       .  A
N2805      N2806   1.325       .  A
N2805     Mn2809   2.226       .  S
N2806      C2813   1.359       .  A
N2807      N2808   1.312       .  A
N2808      C2812   1.348       .  A
Mn2809    Cl2811   2.584       .  S
Mn2810    Cl2811   2.505       .  S
C2812      C3476   1.483       .  S
C2813      C3462   1.491       .  S
N2814      C2819   1.353       .  A
N2814      C2818   1.354       .  A
N2814      H2846   1.037       .  S
N2815      C2822   1.352       .  A
N2815      C2823   1.352       .  A
N2816      C2821   1.355       .  A
N2816      C2820   1.352       .  A
N2816      H2847   1.030       .  S
N2817      C2824   1.348       .  A
N2817      C2825   1.350       .  A
C2818      C2826   1.385       .  A
C2818      C2834   1.412       .  A
C2819      C2835   1.418       .  A
C2819      C2827   1.389       .  A
C2820      C2828   1.387       .  A
C2820      C2837   1.418       .  A
C2821      C2836   1.420       .  A
C2821      C2829   1.388       .  A
C2822      C2834   1.413       .  A
C2822      C2830   1.386       .  A
C2823      C2837   1.414       .  A
C2823      C2831   1.386       .  A
C2824      C2832   1.387       .  A
C2824      C2835   1.412       .  A
C2825      C2833   1.386       .  A
C2825      C2836   1.412       .  A
C2826      C2827   1.374       .  A
C2826      H2838   1.082       .  S
C2827      H2839   1.082       .  S
C2828      C2829   1.373       .  A
C2828      H2840   1.082       .  S
C2829      H2841   1.082       .  S
C2830      C2831   1.373       .  A
C2830      H2842   1.082       .  S
C2831      H2843   1.082       .  S
C2832      C2833   1.372       .  A
C2832      H2844   1.082       .  S
C2833      H2845   1.082       .  S
C2834      C3420   1.483       .  S
C2835      C3451   1.481       .  S
C2836      C3437   1.485       .  S
C2837      C3409   1.483       .  S
N2848      C2853   1.351       .  A
N2848      C2852   1.352       .  A
N2848      H2880   1.039       .  S
N2849      C2856   1.347       .  A
N2849      C2857   1.347       .  A
N2850      C2855   1.351       .  A
N2850      C2854   1.353       .  A
N2850      H2881   1.038       .  S
N2851      C2858   1.350       .  A
N2851      C2859   1.349       .  A
C2852      C2860   1.388       .  A
C2852      C2868   1.413       .  A
C2853      C2869   1.411       .  A
C2853      C2861   1.386       .  A
C2854      C2862   1.387       .  A
C2854      C2871   1.414       .  A
C2855      C2870   1.412       .  A
C2855      C2863   1.387       .  A
C2856      C2868   1.406       .  A
C2856      C2864   1.386       .  A
C2857      C2871   1.406       .  A
C2857      C2865   1.386       .  A
C2858      C2866   1.386       .  A
C2858      C2869   1.409       .  A
C2859      C2867   1.386       .  A
C2859      C2870   1.409       .  A
C2860      C2861   1.375       .  A
C2860      H2872   1.082       .  S
C2861      H2873   1.082       .  S
C2862      C2863   1.375       .  A
C2862      H2874   1.082       .  S
C2863      H2875   1.082       .  S
C2864      C2865   1.373       .  A
C2864      H2876   1.082       .  S
C2865      H2877   1.082       .  S
C2866      C2867   1.375       .  A
C2866      H2878   1.082       .  S
C2867      H2879   1.082       .  S
C2868      C3381   1.477       .  S
C2869      C3465   1.482       .  S
C2870      C3479   1.480       .  S
C2871      C3392   1.480       .  S
N2882      N2883   1.313       .  A
N2882      N2888   1.318       .  A
N2883      C2890   1.345       .  A
N2884      N2886   1.318       .  A
N2884      N2885   1.310       .  A
N2884     Mn2900   2.162       .  S
N2885      C2891   1.338       .  A
N2886      N2887   1.337       .  A
N2887      C2891   1.374       .  A
N2888      N2889   1.335       .  A
N2888     Mn2900   2.254       .  S
N2889      C2890   1.368       .  A
C2890      C3560   1.502       .  S
C2891      C3322   1.505       .  S
N2892      N2898   1.317       .  A
N2892      N2893   1.332       .  A
N2893      C2901   1.365       .  A
N2894      N2895   1.331       .  A
N2894      N2896   1.319       .  A
N2895      C2902   1.364       .  A
N2896      N2897   1.311       .  A
N2897      C2902   1.340       .  A
N2898      N2899   1.314       .  A
N2899      C2901   1.343       .  A
C2901      C3350   1.486       .  S
C2902      C3546   1.473       .  S
N2903      N2904   1.333       .  A
N2903      N2909   1.317       .  A
N2903     Mn2911   2.261       .  S
N2904      C2912   1.370       .  A
N2905      N2907   1.319       .  A
N2905      N2906   1.331       .  A
N2905     Mn2923   2.243   1_565  S
N2906      C2913   1.364       .  A
N2907      N2908   1.317       .  A
N2907     Mn2911   2.210       .  S
N2908      C2913   1.345       .  A
N2909      N2910   1.312       .  A
N2909     Mn2923   2.172   1_565  S
N2910      C2912   1.340       .  A
Mn2911    Cl2924   2.553   1_565  S
C2912      C3336   1.499       .  S
C2913      C3507   1.484       .  S
N2914      N2915   1.316       .  A
N2914      N2920   1.318       .  A
N2914     Mn2922   2.191       .  S
N2915      C2925   1.343       .  A
N2916      N2917   1.315       .  A
N2916      N2918   1.318       .  A
N2917      C2926   1.345       .  A
N2918      N2919   1.327       .  A
N2918     Mn2922   2.220       .  S
N2919      C2926   1.359       .  A
N2920      N2921   1.330       .  A
N2921      C2925   1.361       .  A
Mn2923    Cl2924   2.554       .  S
C2925      C3490   1.477       .  S
C2926      C3364   1.470       .  S
N2927      N2928   1.325       .  A
N2927      N2933   1.317       .  A
N2928      C2935   1.355       .  A
N2929      N2931   1.316       .  A
N2929      N2930   1.320       .  A
N2929     Mn2945   2.216       .  S
N2930      C2936   1.353       .  A
N2931      N2932   1.323       .  A
N2931     Mn2956   2.199   1_556  S
N2932      C2936   1.351       .  A
N2933      N2934   1.320       .  A
N2934      C2935   1.353       .  A
C2935      C3311   1.484       .  S
C2936      C3294   1.470       .  S
N2937      N2943   1.318       .  A
N2937      N2938   1.320       .  A
N2937     Mn2967   2.194       .  S
N2938      C2946   1.350       .  A
N2939      N2940   1.320       .  A
N2939      N2941   1.317       .  A
N2940      C2947   1.353       .  A
N2941      N2942   1.324       .  A
N2942      C2947   1.356       .  A
N2943      N2944   1.320       .  A
N2943     Mn2945   2.215       .  S
N2944      C2946   1.353       .  A
Mn2945    Cl2969   2.523       .  S
C2946      C3266   1.470       .  S
C2947      C3280   1.485       .  S
N2948      N2949   1.324       .  A
N2948      N2954   1.315       .  A
N2948     Mn2956   2.212       .  S
N2949      C2957   1.355       .  A
N2950      N2952   1.315       .  A
N2950      N2951   1.318       .  A
N2951      C2958   1.350       .  A
N2952      N2953   1.324       .  A
N2953      C2958   1.357       .  A
N2954      N2955   1.317       .  A
N2954     Mn2968   2.190       .  S
N2955      C2957   1.350       .  A
Mn2956    Cl2969   2.582   1_554  S
C2957      C3213   1.473       .  S
C2958      C3227   1.476       .  S
N2959      N2960   1.328       .  A
N2959      N2965   1.314       .  A
N2960      C2970   1.360       .  A
N2961      N2962   1.318       .  A
N2961      N2963   1.315       .  A
N2961     Mn2968   2.206       .  S
N2962      C2971   1.353       .  A
N2963      N2964   1.329       .  A
N2963     Mn2967   2.233   1_554  S
N2964      C2971   1.361       .  A
N2965      N2966   1.311       .  A
N2966      C2970   1.349       .  A
Mn2967    Cl2969   2.580       .  S
Mn2968    Cl2969   2.518   1_554  S
C2970      C3252   1.485       .  S
C2971      C3238   1.501       .  S
N2972      C2977   1.353       .  A
N2972      C2976   1.354       .  A
N2972      H3004   1.040       .  S
N2973      C2980   1.352       .  A
N2973      C2981   1.353       .  A
N2974      C2979   1.352       .  A
N2974      C2978   1.352       .  A
N2974      H3005   1.041       .  S
N2975      C2982   1.350       .  A
N2975      C2983   1.351       .  A
C2976      C2984   1.388       .  A
C2976      C2992   1.415       .  A
C2977      C2993   1.414       .  A
C2977      C2985   1.387       .  A
C2978      C2986   1.389       .  A
C2978      C2995   1.413       .  A
C2979      C2994   1.409       .  A
C2979      C2987   1.385       .  A
C2980      C2992   1.416       .  A
C2980      C2988   1.386       .  A
C2981      C2995   1.417       .  A
C2981      C2989   1.386       .  A
C2982      C2990   1.387       .  A
C2982      C2993   1.413       .  A
C2983      C2991   1.385       .  A
C2983      C2994   1.410       .  A
C2984      C2985   1.373       .  A
C2984      H2996   1.082       .  S
C2985      H2997   1.083       .  S
C2986      C2987   1.373       .  A
C2986      H2998   1.082       .  S
C2987      H2999   1.082       .  S
C2988      C2989   1.378       .  A
C2988      H3000   1.082       .  S
C2989      H3001   1.082       .  S
C2990      C2991   1.377       .  A
C2990      H3002   1.082       .  S
C2991      H3003   1.082       .  S
C2992      C3283   1.490       .  S
C2993      C3196   1.489       .  S
C2994      C3182   1.486       .  S
C2995      C3269   1.491       .  S
N3006      C3011   1.352       .  A
N3006      C3010   1.351       .  A
N3006      H3038   1.043       .  S
N3007      C3014   1.349       .  A
N3007      C3015   1.349       .  A
N3008      C3013   1.351       .  A
N3008      C3012   1.354       .  A
N3008      H3039   1.042       .  S
N3009      C3016   1.353       .  A
N3009      C3017   1.350       .  A
C3010      C3018   1.388       .  A
C3010      C3026   1.414       .  A
C3011      C3027   1.411       .  A
C3011      C3019   1.386       .  A
C3012      C3020   1.387       .  A
C3012      C3029   1.413       .  A
C3013      C3028   1.414       .  A
C3013      C3021   1.387       .  A
C3014      C3026   1.415       .  A
C3014      C3022   1.388       .  A
C3015      C3029   1.407       .  A
C3015      C3023   1.384       .  A
C3016      C3024   1.385       .  A
C3016      C3027   1.416       .  A
C3017      C3025   1.387       .  A
C3017      C3028   1.416       .  A
C3018      C3019   1.376       .  A
C3018      H3030   1.082       .  S
C3019      H3031   1.082       .  S
C3020      C3021   1.375       .  A
C3020      H3032   1.082       .  S
C3021      H3033   1.082       .  S
C3022      C3023   1.378       .  A
C3022      H3034   1.082       .  S
C3023      H3035   1.082       .  S
C3024      C3025   1.380       .  A
C3024      H3036   1.082       .  S
C3025      H3037   1.082       .  S
C3026      C3297   1.493       .  S
C3027      C3154   1.499       .  S
C3028      C3171   1.493       .  S
C3029      C3308   1.487       .  S
N3040      N3041   1.325       .  A
N3040      N3046   1.313       .  A
N3040     Mn3069   2.210   1_565  S
N3041      C3048   1.356       .  A
N3042      N3044   1.313       .  A
N3042      N3043   1.313       .  A
N3043      C3049   1.346       .  A
N3044      N3045   1.326       .  A
N3045      C3049   1.359       .  A
N3046      N3047   1.316       .  A
N3046     Mn3058   2.182   1_565  S
N3047      C3048   1.349       .  A
C3048      C3395   1.473       .  S
C3049      C3378   1.474       .  S
N3050      N3056   1.313       .  A
N3050      N3051   1.325       .  A
N3051      C3059   1.358       .  A
N3052      N3053   1.315       .  A
N3052      N3054   1.314       .  A
N3053      C3060   1.348       .  A
N3054      N3055   1.326       .  A
N3054     Mn3080   2.228   1_565  S
N3055      C3060   1.360       .  A
N3056      N3057   1.317       .  A
N3057      C3059   1.352       .  A
Mn3058    Cl3082   2.535       .  S
C3059      C3406   1.486       .  S
C3060      C3423   1.489       .  S
N3061      N3062   1.318       .  A
N3061      N3067   1.318       .  A
N3062      C3070   1.352       .  A
N3063      N3065   1.317       .  A
N3063      N3064   1.322       .  A
N3063     Mn3081   2.234   1_565  S
N3064      C3071   1.360       .  A
N3065      N3066   1.319       .  A
N3065     Mn3069   2.189   1_565  S
N3066      C3071   1.350       .  A
N3067      N3068   1.324       .  A
N3068      C3070   1.357       .  A
Mn3069    Cl3082   2.556       .  S
C3070      C3157   1.488       .  S
C3071      C3185   1.479       .  S
N3072      N3073   1.319       .  A
N3072      N3078   1.318       .  A
N3072     Mn3080   2.202   1_565  S
N3073      C3083   1.352       .  A
N3074      N3075   1.320       .  A
N3074      N3076   1.318       .  A
N3075      C3084   1.357       .  A
N3076      N3077   1.321       .  A
N3077      C3084   1.353       .  A
N3078      N3079   1.320       .  A
N3079      C3083   1.353       .  A
Mn3081    Cl3082   2.540       .  S
C3083      C3199   1.477       .  S
C3084      C3168   1.484       .  S
N3085      C3090   1.347       .  A
N3085      C3089   1.347       .  A
N3085      H3117   1.039       .  S
N3086      C3093   1.351       .  A
N3086      C3094   1.348       .  A
N3087      C3092   1.356       .  A
N3087      C3091   1.356       .  A
N3087      H3118   1.041       .  S
N3088      C3095   1.350       .  A
N3088      C3096   1.350       .  A
C3089      C3097   1.386       .  A
C3089      C3105   1.404       .  A
C3090      C3106   1.404       .  A
C3090      C3098   1.387       .  A
C3091      C3099   1.387       .  A
C3091      C3108   1.421       .  A
C3092      C3107   1.421       .  A
C3092      C3100   1.386       .  A
C3093      C3105   1.410       .  A
C3093      C3101   1.385       .  A
C3094      C3108   1.409       .  A
C3094      C3102   1.387       .  A
C3095      C3103   1.386       .  A
C3095      C3106   1.410       .  A
C3096      C3104   1.387       .  A
C3096      C3107   1.412       .  A
C3097      C3098   1.376       .  A
C3097      H3109   1.082       .  S
C3098      H3110   1.082       .  S
C3099      C3100   1.382       .  A
C3099      H3111   1.082       .  S
C3100      H3112   1.082       .  S
C3101      C3102   1.373       .  A
C3101      H3113   1.082       .  S
C3102      H3114   1.082       .  S
C3103      C3104   1.372       .  A
C3103      H3115   1.082       .  S
C3104      H3116   1.082       .  S
C3105      C3224   1.477       .  S
C3106      C3210   1.474       .  S
C3107      C3367   1.498       .  S
C3108      C3353   1.487       .  S
N3119      C3124   1.360       .  A
N3119      C3123   1.356       .  A
N3119      H3151   1.040       .  S
N3120      C3127   1.352       .  A
N3120      C3128   1.352       .  A
N3121      C3126   1.352       .  A
N3121      C3125   1.354       .  A
N3121      H3152   1.041       .  S
N3122      C3129   1.352       .  A
N3122      C3130   1.349       .  A
C3123      C3131   1.388       .  A
C3123      C3139   1.428       .  A
C3124      C3140   1.427       .  A
C3124      C3132   1.386       .  A
C3125      C3133   1.387       .  A
C3125      C3142   1.414       .  A
C3126      C3141   1.412       .  A
C3126      C3134   1.387       .  A
C3127      C3139   1.418       .  A
C3127      C3135   1.388       .  A
C3128      C3142   1.411       .  A
C3128      C3136   1.384       .  A
C3129      C3137   1.386       .  A
C3129      C3140   1.413       .  A
C3130      C3138   1.385       .  A
C3130      C3141   1.408       .  A
C3131      C3132   1.383       .  A
C3131      H3143   1.082       .  S
C3132      H3144   1.082       .  S
C3133      C3134   1.377       .  A
C3133      H3145   1.082       .  S
C3134      H3146   1.082       .  S
C3135      C3136   1.375       .  A
C3135      H3147   1.082       .  S
C3136      H3148   1.082       .  S
C3137      C3138   1.374       .  A
C3137      H3149   1.082       .  S
C3138      H3150   1.082       .  S
C3139      C3339   1.503       .  S
C3140      C3325   1.508       .  S
C3141      C3255   1.484       .  S
C3142      C3241   1.491       .  S
C3153      C3154   1.407       .  A
C3153      C3158   1.401       .  A
C3153      H3160   1.084       .  S
C3154      C3155   1.412       .  A
C3155      C3156   1.403       .  A
C3155      N3162   1.429       .  S
C3156      C3157   1.406       .  A
C3156      H3161   1.084       .  S
C3157      C3158   1.413       .  A
C3158      N3159   1.428       .  S
N3159      O3163   1.262       .  A
N3159      O3164   1.262       .  A
N3162      O3166   1.262       .  A
N3162      O3165   1.262       .  A
C3167      C3168   1.405       .  A
C3167      C3172   1.399       .  A
C3167      H3174   1.083       .  S
C3168      C3169   1.413       .  A
C3169      C3170   1.401       .  A
C3169      N3176   1.428       .  S
C3170      C3171   1.403       .  A
C3170      H3175   1.084       .  S
C3171      C3172   1.413       .  A
C3172      N3173   1.430       .  S
N3173      O3177   1.262       .  A
N3173      O3178   1.262       .  A
N3176      O3180   1.262       .  A
N3176      O3179   1.262       .  A
C3181      C3182   1.402       .  A
C3181      C3186   1.404       .  A
C3181      H3188   1.084       .  S
C3182      C3183   1.408       .  A
C3183      C3184   1.398       .  A
C3183      N3190   1.428       .  S
C3184      C3185   1.402       .  A
C3184      H3189   1.083       .  S
C3185      C3186   1.413       .  A
C3186      N3187   1.429       .  S
N3187      O3191   1.262       .  A
N3187      O3192   1.262       .  A
N3190      O3194   1.261       .  A
N3190      O3193   1.262       .  A
C3195      C3196   1.403       .  A
C3195      C3200   1.397       .  A
C3195      H3202   1.084       .  S
C3196      C3197   1.411       .  A
C3197      C3198   1.401       .  A
C3197      N3204   1.428       .  S
C3198      C3199   1.403       .  A
C3198      H3203   1.084       .  S
C3199      C3200   1.413       .  A
C3200      N3201   1.429       .  S
N3201      O3205   1.262       .  A
N3201      O3206   1.262       .  A
N3204      O3208   1.262       .  A
N3204      O3207   1.262       .  A
C3209      C3210   1.393       .  A
C3209      C3214   1.392       .  A
C3209      H3216   1.085       .  S
C3210      C3211   1.405       .  A
C3211      C3212   1.404       .  A
C3211      N3218   1.428       .  S
C3212      C3213   1.406       .  A
C3212      H3217   1.083       .  S
C3213      C3214   1.411       .  A
C3214      N3215   1.426       .  S
N3215      O3219   1.260       .  A
N3215      O3220   1.262       .  A
N3218      O3222   1.262       .  A
N3218      O3221   1.262       .  A
C3223      C3224   1.398       .  A
C3223      C3228   1.400       .  A
C3223      H3230   1.084       .  S
C3224      C3225   1.405       .  A
C3225      C3226   1.399       .  A
C3225      N3232   1.430       .  S
C3226      C3227   1.406       .  A
C3226      H3231   1.084       .  S
C3227      C3228   1.412       .  A
C3228      N3229   1.427       .  S
N3229      O3233   1.262       .  A
N3229      O3234   1.262       .  A
N3232      O3236   1.262       .  A
N3232      O3235   1.261       .  A
C3237      C3238   1.408       .  A
C3237      C3242   1.397       .  A
C3237      H3244   1.080       .  S
C3238      C3239   1.419       .  A
C3239      C3240   1.412       .  A
C3239      N3246   1.427       .  S
C3240      C3241   1.404       .  A
C3240      H3245   1.083       .  S
C3241      C3242   1.403       .  A
C3242      N3243   1.431       .  S
N3243      O3247   1.262       .  A
N3243      O3248   1.262       .  A
N3246      O3250   1.262       .  A
N3246      O3249   1.262       .  A
C3251      C3252   1.406       .  A
C3251      C3256   1.389       .  A
C3251      H3258   1.083       .  S
C3252      C3253   1.415       .  A
C3253      C3254   1.407       .  A
C3253      N3260   1.428       .  S
C3254      C3255   1.404       .  A
C3254      H3259   1.084       .  S
C3255      C3256   1.405       .  A
C3256      N3257   1.429       .  S
N3257      O3261   1.261       .  A
N3257      O3262   1.261       .  A
N3260      O3264   1.262       .  A
N3260      O3263   1.262       .  A
C3265      C3266   1.398       .  A
C3265      C3270   1.401       .  A
C3265      H3272   1.084       .  S
C3266      C3267   1.404       .  A
C3267      C3268   1.400       .  A
C3267      N3274   1.426       .  S
C3268      C3269   1.404       .  A
C3268      H3273   1.084       .  S
C3269      C3270   1.416       .  A
C3270      N3271   1.429       .  S
N3271      O3275   1.262       .  A
N3271      O3276   1.261       .  A
N3274      O3278   1.262       .  A
N3274      O3277   1.262       .  A
C3279      C3280   1.405       .  A
C3279      C3284   1.407       .  A
C3279      H3286   1.084       .  S
C3280      C3281   1.411       .  A
C3281      C3282   1.397       .  A
C3281      N3288   1.423       .  S
C3282      C3283   1.397       .  A
C3282      H3287   1.084       .  S
C3283      C3284   1.412       .  A
C3284      N3285   1.428       .  S
N3285      O3289   1.262       .  A
N3285      O3290   1.262       .  A
N3288      O3292   1.262       .  A
N3288      O3291   1.262       .  A
C3293      C3294   1.400       .  A
C3293      C3298   1.402       .  A
C3293      H3300   1.084       .  S
C3294      C3295   1.406       .  A
C3295      C3296   1.397       .  A
C3295      N3302   1.429       .  S
C3296      C3297   1.403       .  A
C3296      H3301   1.083       .  S
C3297      C3298   1.416       .  A
C3298      N3299   1.431       .  S
N3299      O3303   1.262       .  A
N3299      O3304   1.262       .  A
N3302      O3306   1.260       .  A
N3302      O3305   1.262       .  A
C3307      C3308   1.403       .  A
C3307      C3312   1.406       .  A
C3307      H3314   1.084       .  S
C3308      C3309   1.406       .  A
C3309      C3310   1.399       .  A
C3309      N3316   1.430       .  S
C3310      C3311   1.400       .  A
C3310      H3315   1.075       .  S
C3311      C3312   1.411       .  A
C3312      N3313   1.427       .  S
N3313      O3317   1.262       .  A
N3313      O3318   1.262       .  A
N3316      O3320   1.262       .  A
N3316      O3319   1.262       .  A
C3321      C3322   1.403       .  A
C3321      C3326   1.413       .  A
C3321      H3328   1.083       .  S
C3322      C3323   1.428       .  A
C3323      C3324   1.399       .  A
C3323      N3330   1.430       .  S
C3324      C3325   1.396       .  A
C3324      H3329   1.085       .  S
C3325      C3326   1.421       .  A
C3326      N3327   1.428       .  S
N3327      O3331   1.262       .  A
N3327      O3332   1.262       .  A
N3330      O3334   1.262       .  A
N3330      O3333   1.261       .  A
C3335      C3336   1.404       .  A
C3335      C3340   1.411       .  A
C3335      H3342   1.083       .  S
C3336      C3337   1.426       .  A
C3337      C3338   1.397       .  A
C3337      N3344   1.431       .  S
C3338      C3339   1.397       .  A
C3338      H3343   1.085       .  S
C3339      C3340   1.419       .  A
C3340      N3341   1.429       .  S
N3341      O3345   1.261       .  A
N3341      O3346   1.262       .  A
N3344      O3348   1.262   1_565  A
N3344      O3347   1.262       .  A
C3349      C3350   1.408       .  A
C3349      C3354   1.400       .  A
C3349      H3356   1.083       .  S
C3350      C3351   1.411       .  A
C3351      C3352   1.407       .  A
C3351      N3358   1.426       .  S
C3352      C3353   1.403       .  A
C3352      H3357   1.084       .  S
C3353      C3354   1.406       .  A
C3354      N3355   1.431       .  S
N3355      O3359   1.262       .  A
N3355      O3360   1.262       .  A
N3358      O3362   1.262       .  A
N3358      O3361   1.262       .  A
C3363      C3364   1.404       .  A
C3363      C3368   1.404       .  A
C3363      H3370   1.084       .  S
C3364      C3365   1.409       .  A
C3365      C3366   1.403       .  A
C3365      N3372   1.440       .  S
C3366      C3367   1.407       .  A
C3366      H3371   1.083       .  S
C3367      C3368   1.412       .  A
C3368      N3369   1.429       .  S
N3369      O3373   1.262       .  A
N3369      O3374   1.262       .  A
N3372      O3376   1.262       .  A
N3372      O3375   1.262       .  A
C3377      C3378   1.406       .  A
C3377      C3382   1.395       .  A
C3377      H3384   1.084       .  S
C3378      C3379   1.410       .  A
C3379      C3380   1.401       .  A
C3379      N3386   1.427       .  S
C3380      C3381   1.400       .  A
C3380      H3385   1.084       .  S
C3381      C3382   1.403       .  A
C3382      N3383   1.428       .  S
N3383      O3387   1.262       .  A
N3383      O3388   1.262       .  A
N3386      O3390   1.262       .  A
N3386      O3389   1.262       .  A
C3391      C3392   1.401       .  A
C3391      C3396   1.401       .  A
C3391      H3398   1.084       .  S
C3392      C3393   1.406       .  A
C3393      C3394   1.396       .  A
C3393      N3400   1.429       .  S
C3394      C3395   1.404       .  A
C3394      H3399   1.084       .  S
C3395      C3396   1.410       .  A
C3396      N3397   1.428       .  S
N3397      O3401   1.262       .  A
N3397      O3402   1.262       .  A
N3400      O3404   1.262       .  A
N3400      O3403   1.262       .  A
C3405      C3406   1.408       .  A
C3405      C3410   1.397       .  A
C3405      H3412   1.084       .  S
C3406      C3407   1.416       .  A
C3407      C3408   1.404       .  A
C3407      N3414   1.427       .  S
C3408      C3409   1.400       .  A
C3408      H3413   1.084       .  S
C3409      C3410   1.402       .  A
C3410      N3411   1.428       .  S
N3411      O3416   1.262       .  A
N3414      O3418   1.262       .  A
N3414      O3417   1.262       .  A
C3419      C3420   1.393       .  A
C3419      C3424   1.391       .  A
C3419      H3426   1.085       .  S
C3420      C3421   1.409       .  A
C3421      C3422   1.408       .  A
C3421      N3428   1.427       .  S
C3422      C3423   1.408       .  A
C3422      H3427   1.083       .  S
C3423      C3424   1.417       .  A
C3424      N3425   1.425       .  S
N3425      O3429   1.258       .  A
N3425      O3430   1.262       .  A
N3428      O3432   1.262       .  A
N3428      O3431   1.261       .  A
C3433      C3434   1.404       .  A
C3433      C3438   1.391       .  A
C3433      H3440   1.084       .  S
C3434      C3435   1.412       .  A
C3435      C3436   1.406       .  A
C3435      N3442   1.428       .  S
C3436      C3437   1.404       .  A
C3436      H3441   1.084       .  S
C3437      C3438   1.405       .  A
C3438      N3439   1.427       .  S
N3439      O3443   1.262       .  A
N3439      O3444   1.262       .  A
N3442      O3446   1.262       .  A
N3442      O3445   1.262       .  A
C3447      C3448   1.400       .  A
C3447      C3452   1.401       .  A
C3447      H3454   1.084       .  S
C3448      C3449   1.407       .  A
C3449      C3450   1.392       .  A
C3449      N3456   1.428       .  S
C3450      C3451   1.399       .  A
C3450      H3455   1.084       .  S
C3451      C3452   1.411       .  A
C3452      N3453   1.428       .  S
N3453      O3457   1.262       .  A
N3453      O3458   1.262       .  A
N3456      O3460   1.260       .  A
N3456      O3459   1.262       .  A
C3461      C3462   1.411       .  A
C3461      C3466   1.400       .  A
C3461      H3468   1.083       .  S
C3462      C3463   1.417       .  A
C3463      C3464   1.402       .  A
C3463      N3470   1.427       .  S
C3464      C3465   1.398       .  A
C3464      H3469   1.084       .  S
C3465      C3466   1.405       .  A
C3466      N3467   1.432       .  S
N3467      O3471   1.262       .  A
N3467      O3472   1.262       .  A
N3470      O3474   1.262       .  A
N3470      O3473   1.262       .  A
C3475      C3476   1.406       .  A
C3475      C3480   1.390       .  A
C3475      H3482   1.083       .  S
C3476      C3477   1.414       .  A
C3477      C3478   1.405       .  A
C3477      N3484   1.428       .  S
C3478      C3479   1.403       .  A
C3478      H3483   1.084       .  S
C3479      C3480   1.403       .  A
C3480      N3481   1.429       .  S
N3481      O3485   1.262       .  A
N3481      O3486   1.262       .  A
N3484      O3488   1.262       .  A
N3484      O3487   1.262       .  A
C3489      C3490   1.397       .  A
C3489      C3494   1.400       .  A
C3489      H3496   1.083       .  S
C3490      C3491   1.412       .  A
C3491      C3492   1.407       .  A
C3491      N3498   1.427       .  S
C3492      C3493   1.403       .  A
C3492      H3497   1.084       .  S
C3493      C3494   1.415       .  A
C3494      N3495   1.428       .  S
N3495      O3499   1.260       .  A
N3495      O3500   1.262       .  A
N3498      O3502   1.262       .  A
N3498      O3501   1.262       .  A
C3503      C3504   1.407       .  A
C3503      C3508   1.404       .  A
C3503      H3510   1.084       .  S
C3504      C3505   1.413       .  A
C3505      C3506   1.409       .  A
C3505      N3512   1.427       .  S
C3506      C3507   1.404       .  A
C3506      H3511   1.084       .  S
C3507      C3508   1.411       .  A
C3508      N3509   1.429       .  S
N3509      O3513   1.262       .  A
N3509      O3514   1.262       .  A
N3512      O3516   1.262       .  A
N3512      O3515   1.262       .  A
C3517      C3518   1.402       .  A
C3517      C3522   1.399       .  A
C3517      H3524   1.084       .  S
C3518      C3519   1.412       .  A
C3519      C3520   1.402       .  A
C3519      N3526   1.426       .  S
C3520      C3521   1.398       .  A
C3520      H3525   1.084       .  S
C3521      C3522   1.409       .  A
C3522      N3523   1.428       .  S
N3523      O3527   1.260       .  A
N3523      O3528   1.261       .  A
N3526      O3530   1.261       .  A
N3526      O3529   1.261       .  A
C3531      C3532   1.396       .  A
C3531      C3536   1.396       .  A
C3531      H3538   1.084       .  S
C3532      C3533   1.407       .  A
C3533      C3534   1.405       .  A
C3533      N3540   1.429       .  S
C3534      C3535   1.406       .  A
C3534      H3539   1.083       .  S
C3535      C3536   1.412       .  A
C3536      N3537   1.428       .  S
N3537      O3541   1.262       .  A
N3537      O3542   1.261       .  A
N3540      O3544   1.262       .  A
N3540      O3543   1.262       .  A
C3545      C3546   1.400       .  A
C3545      C3550   1.408       .  A
C3545      H3552   1.084       .  S
C3546      C3547   1.406       .  A
C3547      C3548   1.402       .  A
C3547      N3554   1.431       .  S
C3548      C3549   1.409       .  A
C3548      H3553   1.084       .  S
C3549      C3550   1.417       .  A
C3550      N3551   1.428       .  S
N3551      O3555   1.262       .  A
N3551      O3556   1.262       .  A
N3554      O3558   1.262       .  A
C3559      C3560   1.412       .  A
C3559      C3564   1.400       .  A
C3559      H3566   1.083       .  S
C3560      C3561   1.412       .  A
C3561      C3562   1.411       .  A
C3561      N3568   1.427       .  S
C3562      C3563   1.411       .  A
C3562      H3567   1.084       .  S
C3563      C3564   1.408       .  A
C3564      N3565   1.430       .  S
N3565      O3569   1.262       .  A
N3565      O3570   1.262   1_655  A
N3568      O3572   1.262       .  A
N3568      O3571   1.262       .  A
C3573      C3574   1.405       .  A
C3573      C3578   1.406       .  A
C3573      H3580   1.084       .  S
C3574      C3575   1.405       .  A
C3575      C3576   1.387       .  A
C3575      N3582   1.430       .  S
C3576      C3577   1.406       .  A
C3576      H3581   1.084       .  S
C3577      C3578   1.412       .  A
C3578      N3579   1.428       .  S
N3579      O3583   1.261       .  A
N3579      O3584   1.262       .  A
N3582      O3586   1.262       .  A
N3582      O3585   1.262       .  A
C3587      C3588   1.401       .  A
C3587      C3592   1.398       .  A
C3587      H3594   1.084       .  S
C3588      C3589   1.414       .  A
C3589      C3590   1.405       .  A
C3589      N3596   1.429       .  S
C3590      C3591   1.404       .  A
C3590      H3595   1.084       .  S
C3591      C3592   1.415       .  A
C3592      N3593   1.430       .  S
N3593      O3597   1.262       .  A
N3593      O3598   1.262       .  A
N3596      O3600   1.262       .  A
N3596      O3599   1.262       .  A
