geometry optimzed in LAMMPS
_audit_creation_date              2020-11-30 
_audit_creation_method            'lammps2cif' 
_symmetry_space_group_name_H-M    'P1' 
_symmetry_Int_Tables_number       1 
_symmetry_cell_setting            triclinic 
loop_ 
_symmetry_equiv_pos_as_xyz 
  x,y,z 
_cell_length_a                    51.90553666 
_cell_length_b                    51.932042634186764 
_cell_length_c                    26.402595167135257 
_cell_angle_alpha                 90.15741031167352 
_cell_angle_beta                  89.83563080330252 
_cell_angle_gamma                 120.45579783067384 
loop_ 
_atom_site_label 
_atom_site_type_symbol 
_atom_site_fract_x 
_atom_site_fract_y 
_atom_site_fract_z 
_atom_site_charge 
Zn1        Zn  0.26094297  0.22791562  0.05291258     1.49700
Zn2        Zn  0.27508288  0.27758513  0.96911456     1.49400
Zn3        Zn  0.21207709  0.21548786  0.96642009     1.49100
Zn4        Zn  0.22464048  0.26201650  0.05519991     1.49500
O5          O  0.24325534  0.24581505  0.01062402    -1.84000
O6          O  0.30511605  0.24580203  0.03895948    -0.74600
O7          O  0.26622163  0.26839171  0.89438383    -0.74500
O8          O  0.20825009  0.17519314  0.97747843    -0.74000
O9          O  0.31525922  0.28027457  0.98036624    -0.74700
O10         O  0.24178482  0.18402994  0.03770325    -0.74300
O11         O  0.22266325  0.22567195  0.89281496    -0.74800
O12         O  0.18046785  0.24331786  0.04151908    -0.74200
O13         O  0.27803316  0.31761352  0.98401218    -0.75000
O14         O  0.17203629  0.21260355  0.97675063    -0.74400
O15         O  0.24326102  0.30615285  0.04299306    -0.74800
O16         O  0.23005812  0.25640242  0.12908408    -0.74800
O17         O  0.25649163  0.23363478  0.12707432    -0.74500
C18         C  0.32339943  0.26582714  0.00867913     0.77200
C19         C  0.24482044  0.24705674  0.87018352     0.77700
C20         C  0.22209167  0.16655633  0.00619653     0.76700
C21         C  0.16306301  0.22496400  0.00830962     0.77100
C22         C  0.26365410  0.32520993  0.01396348     0.78200
C23         C  0.24386763  0.24533955  0.15160104     0.77300
Zn24       Zn  0.26683188  0.23075898  0.55293892     1.49700
Zn25       Zn  0.21802903  0.21687277  0.46698360     1.49400
Zn26       Zn  0.23264861  0.26597909  0.55170908     1.49100
Zn27       Zn  0.28185072  0.28042378  0.46650584     1.49500
O28         O  0.25005199  0.24854006  0.50888941    -1.84000
O29         O  0.24745729  0.18667222  0.53933252    -0.74600
O30         O  0.17764959  0.21357813  0.47782355    -0.74500
O31         O  0.23585402  0.25959753  0.62593594    -0.74000
O32         O  0.21410516  0.17622194  0.47864363    -0.74700
O33         O  0.26120757  0.23588961  0.62780587    -0.74300
O34         O  0.18962713  0.24878289  0.53556114    -0.74800
O35         O  0.28595215  0.32152813  0.47970932    -0.74200
O36         O  0.22757499  0.22741197  0.39392482    -0.75000
O37         O  0.25165414  0.30967585  0.53932332    -0.74400
O38         O  0.27101305  0.27039937  0.39257951    -0.74800
O39         O  0.32200238  0.28276591  0.47788718    -0.74800
O40         O  0.31058743  0.24878167  0.53789101    -0.74500
C41         C  0.22754635  0.16802479  0.50921045     0.77200
C42         C  0.17046750  0.22874590  0.50635199     0.77700
C43         C  0.24778662  0.24738711  0.65072699     0.76700
C44         C  0.27172733  0.32895749  0.51035964     0.77100
C45         C  0.24876742  0.24898776  0.36989383     0.78200
C46         C  0.32953627  0.26845919  0.50787591     0.77300
Zn47       Zn  0.03175541  0.26755860  0.95366772     1.49700
Zn48       Zn  0.49905129  0.22111897  0.03743466     1.49400
Zn49       Zn  0.99787569  0.28191518  0.04022886     1.49100
Zn50       Zn  0.46342367  0.23499075  0.95249761     1.49500
O51         O  0.99662569  0.25027557  0.99717989    -1.84000
O52         O  0.05713834  0.24945087  0.96748573    -0.74600
O53         O  0.49970609  0.23147574  0.11106903    -0.74500
O54         O  0.03504566  0.32232987  0.02680138    -0.74000
O55         O  0.03215221  0.21420476  0.02495611    -0.74700
O56         O  0.05707886  0.31179842  0.96452980    -0.74300
O57         O  0.99824951  0.27173310  0.11356874    -0.74800
O58         O  0.43657974  0.25171122  0.96645883    -0.74200
O59         O  0.46150262  0.18028096  0.02557035    -0.75000
O60         O  0.45899949  0.28426402  0.02877360    -0.74400
O61         O  0.43857422  0.19129031  0.96603218    -0.74800
O62         O  0.47417015  0.24045445  0.87862019    -0.74800
O63         O  0.02091979  0.26052571  0.88033253    -0.74500
C64         C  0.05470309  0.22860214  0.99595875     0.77200
C65         C  0.99776876  0.24996510  0.13657821     0.77700
C66         C  0.05622003  0.33046591  0.99480814     0.76700
C67         C  0.43693281  0.27014632  0.99870455     0.77100
C68         C  0.43961230  0.17245260  0.99528993     0.78200
C69         C  0.99625736  0.24793565  0.85648737     0.77300
Zn70       Zn  0.46712613  0.23398269  0.53775119     1.49700
Zn71       Zn  0.00009433  0.28126629  0.45280186     1.49400
Zn72       Zn  0.03483745  0.26853044  0.53868890     1.49100
Zn73       Zn  0.50157031  0.21934998  0.45220445     1.49500
O74         O  0.50165930  0.25137447  0.49362110    -1.84000
O75         O  0.44162610  0.25142922  0.52423177    -0.74600
O76         O  0.03733526  0.32299290  0.46537044    -0.74500
O77         O  0.02461972  0.26227983  0.61272114    -0.74000
O78         O  0.46367783  0.28549160  0.46409034    -0.74700
O79         O  0.47737045  0.24005025  0.61140736    -0.74300
O80         O  0.05966159  0.31222695  0.52630426    -0.74800
O81         O  0.03868954  0.21547064  0.46804160    -0.74200
O82         O  0.00029073  0.27069369  0.37929446    -0.75000
O83         O  0.06052367  0.25150127  0.52506245    -0.74400
O84         O  0.50243912  0.22967687  0.37805192    -0.74800
O85         O  0.46367811  0.17880993  0.46504304    -0.74800
O86         O  0.44190336  0.19036090  0.52625680    -0.74500
C87         C  0.44207892  0.27104071  0.49497172     0.77200
C88         C  0.05881143  0.33105562  0.49676177     0.77700
C89         C  0.50207174  0.25287160  0.63504555     0.76700
C90         C  0.06025757  0.23103564  0.49832138     0.77100
C91         C  0.50230996  0.25107756  0.35462385     0.78200
C92         C  0.44241450  0.17127370  0.49674879     0.77300
Zn93       Zn  0.27949453  0.00059091  0.04279764     1.49700
Zn94       Zn  0.23080643  0.46307583  0.95977698     1.49400
Zn95       Zn  0.21698388  0.49925683  0.04522327     1.49100
Zn96       Zn  0.26582275  0.03608065  0.95811261     1.49500
O97         O  0.24813071  0.49824299  0.00351161    -1.84000
O98         O  0.27936103  0.45916808  0.03877967    -0.74600
O99         O  0.18651168  0.43924568  0.97076070    -0.74500
O100        O  0.22626641  0.49938012  0.11958693    -0.74000
O101        O  0.24732802  0.43622528  0.97577396    -0.74700
O102        O  0.26903346  0.00172456  0.11548692    -0.74300
O103        O  0.17625758  0.46266974  0.03111341    -0.74800
O104        O  0.24646484  0.06033424  0.97127540    -0.74200
O105        O  0.23784591  0.47362836  0.88566524    -0.75000
O106        O  0.21128439  0.03541092  0.02865241    -0.74400
O107        O  0.26160316  0.02673031  0.88375341    -0.74800
O108        O  0.30934338  0.06181515  0.97292416    -0.74800
O109        O  0.32057730  0.03782135  0.03025825    -0.74500
C110        C  0.26565398  0.43711180  0.00864971     0.77200
C111        C  0.16792617  0.44101853  0.00006195     0.77700
C112        C  0.24801714  0.50013756  0.14322697     0.76700
C113        C  0.22545694  0.05788630  0.99958095     0.77100
C114        C  0.25044302  0.49854197  0.86251069     0.78200
C115        C  0.32824389  0.06029824  0.00148132     0.77300
Zn116      Zn  0.22172213  0.50238726  0.46109846     1.49700
Zn117      Zn  0.28232973  0.00018044  0.45557625     1.49400
Zn118      Zn  0.26841282  0.03461809  0.54212469     1.49100
Zn119      Zn  0.23328517  0.46473922  0.54343056     1.49500
O120        O  0.25264913  0.50032956  0.50173739    -1.84000
O121        O  0.23127518  0.50243602  0.38713286    -0.74600
O122        O  0.32236711  0.03816620  0.46664518    -0.74500
O123        O  0.24918516  0.05908611  0.53189135    -0.74000
O124        O  0.27210671  0.49871164  0.38557781    -0.74700
O125        O  0.21444235  0.03636957  0.47298431    -0.74300
O126        O  0.31202595  0.06072834  0.52817186    -0.74800
O127        O  0.23735094  0.47417230  0.61782308    -0.74200
O128        O  0.28671698  0.46228507  0.47236102    -0.75000
O129        O  0.26337758  0.02372022  0.61550389    -0.74400
O130        O  0.25156961  0.43953642  0.53084042    -0.74800
O131        O  0.18954643  0.43983923  0.52780678    -0.74800
O132        O  0.17991183  0.46561577  0.47183310    -0.74500
C133        C  0.25133983  0.50029095  0.36274281     0.77200
C134        C  0.33048609  0.05993629  0.49729141     0.77700
C135        C  0.22841480  0.05769313  0.50449940     0.76700
C136        C  0.25138164  0.49831378  0.64292602     0.77100
C137        C  0.27198139  0.44048432  0.50267415     0.78200
C138        C  0.17126807  0.44244393  0.49926710     0.77300
C139        C  0.26073820  0.02669107  0.72035702    -0.26200
C140        C  0.25079555  0.49754082  0.69915297    -0.14300
C141        C  0.22694908  0.47443761  0.72715904     0.36300
C142        C  0.22758230  0.47535690  0.78008672    -0.25700
C143        C  0.25131926  0.49886429  0.80645424    -0.14900
C144        C  0.26169702  0.02872307  0.77317470     0.37400
N145        N  0.27391575  0.05788514  0.79504538    -0.84300
H146        H  0.26925448  0.04717424  0.69885080     0.18500
H147        H  0.20900722  0.45765373  0.80080889     0.18500
N148        N  0.20133521  0.45018586  0.70333221    -0.88200
H149        H  0.29248900  0.06245179  0.81696472     0.35900
H150        H  0.25762672  0.05842535  0.81767062     0.41000
H151        H  0.20807472  0.43746377  0.68255875     0.40600
H152        H  0.19175602  0.45888827  0.67905787     0.35500
C153        C  0.27168140  0.00152733  0.22037451    -0.26200
C154        C  0.24849680  0.50053611  0.19938064    -0.14300
C155        C  0.23369828  0.51212367  0.22825790     0.36300
C156        C  0.23471808  0.51146629  0.28141815    -0.25700
C157        C  0.25045133  0.49980969  0.30651676    -0.14900
C158        C  0.27329107  0.00153249  0.27329227     0.37400
N159        N  0.29859578  0.00235204  0.29658408    -0.89100
H160        H  0.28974014  0.00205670  0.19882819     0.18500
H161        H  0.22357662  0.52065328  0.30335755     0.18500
N162        N  0.21818717  0.52502148  0.20371972    -0.88200
H163        H  0.31788993  0.02158869  0.28419752     0.35900
H164        H  0.29964915  0.98378887  0.28405685     0.41000
H165        H  0.23411206  0.54414037  0.18455420     0.40600
H166        H  0.20822762  0.53216131  0.23044527     0.35500
C167        C  0.09462837  0.37986998  0.45461953    -0.26200
C168        C  0.08426355  0.36245476  0.49883872    -0.14300
C169        C  0.10070734  0.37395586  0.54406034     0.36300
C170        C  0.12803821  0.40094854  0.54347005    -0.25700
C171        C  0.13966570  0.41733155  0.49864517    -0.14900
C172        C  0.12208916  0.40708672  0.45402927     0.37400
N173        N  0.13223263  0.42280714  0.40702099    -0.89100
H174        H  0.08225481  0.37149566  0.41960984     0.18500
H175        H  0.14074686  0.40868002  0.57831277     0.18500
N176        N  0.08997004  0.35800144  0.59081785    -0.88200
H177        H  0.15281324  0.42491812  0.39781124     0.35900
H178        H  0.13513797  0.44411568  0.41172949     0.41000
H179        H  0.08781758  0.37197878  0.61692821     0.40600
H180        H  0.10603914  0.35333232  0.60454840     0.35500
C181        C  0.37259989  0.10194620  0.54246356    -0.26200
C182        C  0.36172596  0.08542972  0.49752578    -0.14300
C183        C  0.37980154  0.09528821  0.45348313     0.36300
C184        C  0.40717695  0.12265946  0.45462591    -0.25700
C185        C  0.41682177  0.14015595  0.49881656    -0.14900
C186        C  0.39984014  0.12890910  0.54360432     0.37400
N187        N  0.40996143  0.14500933  0.59041100    -0.89100
H188        H  0.35946161  0.09429794  0.57694414     0.18500
H189        H  0.42024809  0.13105237  0.42023470     0.18500
N190        N  0.36963660  0.07856022  0.40710544    -0.88200
H191        H  0.41175793  0.13111281  0.61699071     0.35900
H192        H  0.39370782  0.14971271  0.60327568     0.41000
H193        H  0.36971674  0.05865415  0.41232597     0.40600
H194        H  0.38471667  0.08985774  0.37769940     0.35500
C195        C  0.02410302  0.26440410  0.77488148    -0.26200
C196        C  0.49926980  0.25254317  0.79861891    -0.14300
C197        C  0.47317038  0.23483661  0.76987204     0.36300
C198        C  0.47471782  0.23543041  0.71688728    -0.25700
C199        C  0.50184438  0.25332760  0.69128127    -0.14900
C200        C  0.02583488  0.26500491  0.72189718     0.37400
N201        N  0.05417935  0.28363161  0.69801501    -0.89100
H202        H  0.04437084  0.27828191  0.79615733     0.18500
H203        H  0.45440577  0.22147422  0.69576892     0.18500
N204        N  0.44501096  0.21583622  0.79402828    -0.88200
H205        H  0.06901406  0.27698441  0.71058145     0.35900
H206        H  0.06227423  0.30564311  0.70987509     0.41000
H207        H  0.43726887  0.19388115  0.78220709     0.40600
H208        H  0.42982836  0.22206893  0.78162946     0.35500
C209        C  0.49283768  0.26910171  0.27343167    -0.26200
C210        C  0.50239722  0.25153789  0.29837647    -0.14300
C211        C  0.01175754  0.23404238  0.27064013     0.36300
C212        C  0.01017750  0.23425930  0.21751537    -0.25700
C213        C  0.50097804  0.25316648  0.19112874    -0.14900
C214        C  0.49203181  0.27006954  0.22045176     0.37400
N215        N  0.48146681  0.28779109  0.19684647    -0.89100
H216        H  0.48547449  0.28195225  0.29511480     0.18500
H217        H  0.01886408  0.22271757  0.19539281     0.18500
N218        N  0.02482930  0.21862506  0.29492490    -0.88200
H219        H  0.49501111  0.30991612  0.20875185     0.35900
H220        H  0.45972300  0.28031154  0.20965264     0.41000
H221        H  0.04444549  0.23468344  0.31272385     0.40600
H222        H  0.03119159  0.20801430  0.26813516     0.35500
C223        C  0.12521760  0.40145706  0.95185133    -0.26200
C224        C  0.13627073  0.41652615  0.99802415    -0.14300
C225        C  0.11818147  0.40559978  0.04187191     0.36300
C226        C  0.09090902  0.37821832  0.03941080    -0.25700
C227        C  0.08133710  0.36183807  0.99403132    -0.14900
C228        C  0.09793415  0.37450395  0.94941085     0.37400
N229        N  0.08737161  0.35983633  0.90154427    -0.89100
H230        H  0.13836428  0.41011522  0.91755611     0.18500
H231        H  0.07796622  0.36884560  0.07366897     0.18500
N232        N  0.12835802  0.42113913  0.08932245    -0.88200
H233        H  0.10354389  0.35567005  0.88643100     0.35900
H234        H  0.08524783  0.37450191  0.87717640     0.41000
H235        H  0.12848704  0.44125930  0.08593458     0.40600
H236        H  0.11318302  0.40920547  0.11826933     0.35500
C237        C  0.37027411  0.10067129  0.95382106    -0.26200
C238        C  0.35947227  0.08580839  0.00014265    -0.14300
C239        C  0.37729616  0.09792305  0.04401877     0.36300
C240        C  0.40436725  0.12531122  0.04097194    -0.25700
C241        C  0.41390818  0.14128416  0.99517124    -0.14900
C242        C  0.39689376  0.12807017  0.95079303     0.37400
N243        N  0.40586137  0.14181640  0.90192615    -0.89100
H244        H  0.35722077  0.09145223  0.91962209     0.18500
H245        H  0.41710915  0.13496845  0.07528896     0.18500
N246        N  0.36776059  0.08395423  0.09255410    -0.88200
H247        H  0.42786912  0.14718337  0.89498705     0.35900
H248        H  0.40452241  0.16120970  0.90125189     0.41000
H249        H  0.36526512  0.06270898  0.09052730     0.40600
H250        H  0.34705257  0.08173733  0.10114544     0.35500
C251        C  0.28962069  0.37906087  0.46941007    -0.26200
C252        C  0.27706437  0.36005305  0.51151106    -0.14300
C253        C  0.26688003  0.36997651  0.55270309     0.36300
C254        C  0.26721781  0.39700212  0.54953650    -0.25700
C255        C  0.27753379  0.41499879  0.50607441    -0.14900
C256        C  0.29011675  0.40653321  0.46631048     0.37400
N257        N  0.30196902  0.42491806  0.42200892    -0.89100
H258        H  0.29785719  0.37189902  0.43784160     0.18500
H259        H  0.25837723  0.40345610  0.58122528     0.18500
N260        N  0.25554825  0.35244212  0.59785238    -0.88200
H261        H  0.30900274  0.41478383  0.39545998     0.35900
H262        H  0.32114116  0.44467798  0.43306246     0.41000
H263        H  0.23350919  0.34744848  0.60320798     0.40600
H264        H  0.26824402  0.36540341  0.62850477     0.35500
C265        C  0.22892824  0.12658507  0.55323180    -0.26200
C266        C  0.22113769  0.13660300  0.50974858    -0.14300
C267        C  0.21039869  0.11753585  0.46689485     0.36300
C268        C  0.21107635  0.09066361  0.46677582    -0.25700
C269        C  0.22175774  0.08231304  0.50879826    -0.14900
C270        C  0.22905052  0.09971332  0.55332394     0.37400
N271        N  0.23712761  0.09045172  0.59872834    -0.89100
H272        H  0.23598190  0.14020114  0.58721324     0.18500
H273        H  0.20471262  0.07703506  0.43284915     0.18500
N274        N  0.20040779  0.12612046  0.42277809    -0.88200
H275        H  0.22231316  0.08851748  0.62741412     0.35900
H276        H  0.25859735  0.10720013  0.60922333     0.41000
H277        H  0.18073014  0.12581410  0.43267150     0.40600
H278        H  0.19461477  0.11028859  0.39395619     0.35500
C279        C  0.09244711  0.21121132  0.46494895    -0.26200
C280        C  0.08615159  0.22630348  0.50295645    -0.14300
C281        C  0.10602121  0.23861218  0.54433061     0.36300
C282        C  0.13230844  0.23758290  0.54515252    -0.25700
C283        C  0.13980785  0.22436716  0.50582169    -0.14900
C284        C  0.11902231  0.20991140  0.46606840     0.37400
N285        N  0.12529193  0.19498098  0.42618165    -0.89100
H286        H  0.07713441  0.20125698  0.43349588     0.18500
H287        H  0.14735720  0.24801132  0.57682047     0.18500
N288        N  0.09992372  0.25261881  0.58582399    -0.88200
H289        H  0.10831442  0.18664955  0.39903209     0.35900
H290        H  0.12491348  0.17638668  0.44214635     0.41000
H291        H  0.11748259  0.27474586  0.58845631     0.40600
H292        H  0.09946287  0.24159153  0.61918246     0.35500
C293        C  0.37707536  0.28271480  0.46121010    -0.26200
C294        C  0.36053867  0.27365194  0.50667990    -0.14300
C295        C  0.37337364  0.26783468  0.54928958     0.36300
C296        C  0.40092860  0.26946245  0.54470128    -0.25700
C297        C  0.41632310  0.27605998  0.49835182    -0.14900
C298        C  0.40459644  0.28374379  0.45646713     0.37400
N299        N  0.41920420  0.29120706  0.40816783    -0.89100
H300        H  0.36786306  0.28754684  0.42824773     0.18500
H301        H  0.40982806  0.26424142  0.57768361     0.18500
N302        N  0.35911231  0.26006170  0.59792969    -0.88200
H303        H  0.42159444  0.27336622  0.39579450     0.35900
H304        H  0.44036913  0.31010437  0.41246645     0.41000
H305        H  0.33981162  0.23905514  0.59588191     0.40600
H306        H  0.35360660  0.27610399  0.60859313     0.35500
C307        C  0.22492053  0.25103966  0.78724555    -0.26200
C308        C  0.24567794  0.24694832  0.81441093    -0.14300
C309        C  0.26641322  0.24199714  0.78796642     0.36300
C310        C  0.26644441  0.24184863  0.73491634    -0.25700
C311        C  0.24616729  0.24669409  0.70716430    -0.14900
C312        C  0.22484115  0.25095475  0.73392937     0.37400
N313        N  0.20295262  0.25483662  0.70716453    -0.89100
H314        H  0.20872603  0.25436380  0.80780587     0.18500
H315        H  0.28271226  0.23822072  0.71533197     0.18500
N316        N  0.28728704  0.23649032  0.81414558    -0.88200
H317        H  0.18951830  0.25839064  0.73247111     0.35900
H318        H  0.18881229  0.23480359  0.68834835     0.41000
H319        H  0.27529554  0.21783550  0.83743856     0.40600
H320        H  0.30069735  0.25493810  0.83707052     0.35500
C321        C  0.21975963  0.23952667  0.23542767    -0.26200
C322        C  0.24549838  0.24643685  0.20743679    -0.14300
C323        C  0.27257524  0.25523413  0.23330864     0.36300
C324        C  0.27331206  0.25679331  0.28616199    -0.25700
C325        C  0.24740274  0.24894790  0.31415582    -0.14900
C326        C  0.22034559  0.24042369  0.28864140     0.37400
N327        N  0.19372262  0.23304418  0.31683595    -0.89100
H328        H  0.19906739  0.23308033  0.21569350     0.18500
H329        H  0.29415420  0.26346694  0.30557089     0.18500
N330        N  0.29983801  0.26339795  0.20699335    -0.88200
H331        H  0.17572816  0.22708442  0.29236781     0.35900
H332        H  0.19749748  0.25231589  0.33588458     0.41000
H333        H  0.30413807  0.28039251  0.18126469     0.40600
H334        H  0.29728525  0.24480944  0.18716909     0.35500
C335        C  0.26096010  0.36646456  0.05750517    -0.26200
C336        C  0.26948292  0.35644009  0.01448434    -0.14300
C337        C  0.28022569  0.37517435  0.97135377     0.36300
C338        C  0.27970382  0.40203763  0.97084350    -0.25700
C339        C  0.26981460  0.41112023  0.01299723    -0.14900
C340        C  0.26109900  0.39361025  0.05724833     0.37400
N341        N  0.25111995  0.40278298  0.10093386    -0.89100
H342        H  0.25312142  0.35253959  0.09100777     0.18500
H343        H  0.28655108  0.41575676  0.93705935     0.18500
N344        N  0.29022545  0.36632233  0.92735123    -0.88200
H345        H  0.24556293  0.38745822  0.13044992     0.35900
H346        H  0.23143981  0.40241534  0.09106022     0.41000
H347        H  0.31007448  0.36700763  0.93709792     0.40600
H348        H  0.29574340  0.38181616  0.89813058     0.35500
C349        C  0.22867659  0.10192734  0.95690131    -0.26200
C350        C  0.21862668  0.08249331  0.99868434    -0.14300
C351        C  0.20542676  0.08898073  0.04007513     0.36300
C352        C  0.20545997  0.11614961  0.04066612    -0.25700
C353        C  0.21733922  0.13628867  0.00012742    -0.14900
C354        C  0.22837261  0.12867689  0.95703574     0.37400
N355        N  0.24086399  0.14799703  0.91375889    -0.89100
H356        H  0.23816901  0.09697552  0.92428942     0.18500
H357        H  0.19695861  0.12207274  0.07350104     0.18500
N358        N  0.19337717  0.06886290  0.08229876    -0.88200
H359        H  0.26352327  0.15466790  0.91168243     0.35900
H360        H  0.23987064  0.16747489  0.91702232     0.41000
H361        H  0.17448949  0.04942959  0.06936774     0.40600
H362        H  0.18582588  0.07770462  0.11039005     0.35500
C363        C  0.08744797  0.21462172  0.04280307    -0.26200
C364        C  0.07944696  0.22218169  0.99677247    -0.14300
C365        C  0.09706073  0.22639483  0.95332126     0.36300
C366        C  0.12315317  0.22480719  0.95724016    -0.25700
C367        C  0.13246252  0.21982408  0.00410644    -0.14900
C368        C  0.11401711  0.21371564  0.04701633     0.37400
N369        N  0.12273035  0.20733029  0.09482351    -0.89100
H370        H  0.07386110  0.21107248  0.07619353     0.18500
H371        H  0.13714649  0.22932371  0.92404654     0.18500
N372        N  0.08885400  0.23287507  0.90529931    -0.88200
H373        H  0.12290567  0.18738913  0.09068108     0.35900
H374        H  0.10681423  0.20349619  0.12267125     0.41000
H375        H  0.08638878  0.21645584  0.87954149     0.40600
H376        H  0.10643090  0.25341624  0.89272974     0.35500
C377        C  0.39466593  0.27171662  0.95705687    -0.26200
C378        C  0.41032686  0.27388751  0.00176366    -0.14300
C379        C  0.39822660  0.27580497  0.04874396     0.36300
C380        C  0.37017329  0.27399354  0.04998429    -0.25700
C381        C  0.35436893  0.27132206  0.00530620    -0.14900
C382        C  0.36706794  0.27078796  0.95823045     0.37400
N383        N  0.35101350  0.26729434  0.91200410    -0.89100
H384        H  0.40373748  0.27007145  0.92097209     0.18500
H385        H  0.36032267  0.27421106  0.08611572     0.18500
N386        N  0.41348308  0.27774029  0.09521322    -0.88200
H387        H  0.36250741  0.26532355  0.88104437     0.35900
H388        H  0.35049731  0.28693321  0.90628203     0.41000
H389        H  0.43291022  0.29875350  0.09619724     0.40600
H390        H  0.40067296  0.27700540  0.12640407     0.35500
Zn391      Zn  0.26768609  0.73184395  0.04299236     1.49700
Zn392      Zn  0.27955556  0.78168247  0.96069203     1.49400
Zn393      Zn  0.21718300  0.71766240  0.95895366     1.49100
Zn394      Zn  0.23048668  0.76492749  0.04809224     1.49500
O395        O  0.24868621  0.74898410  0.00218257    -1.84000
O396        O  0.31142452  0.75056413  0.02637727    -0.74600
O397        O  0.26952640  0.77207109  0.88703149    -0.74500
O398        O  0.21429384  0.67735060  0.97053722    -0.74000
O399        O  0.32063869  0.78552334  0.96908130    -0.74700
O400        O  0.24925170  0.68797078  0.02873226    -0.74300
O401        O  0.22734951  0.72814575  0.88465055    -0.74800
O402        O  0.18637188  0.74557371  0.03573733    -0.74200
O403        O  0.28120984  0.82130664  0.97548471    -0.75000
O404        O  0.17654490  0.71385606  0.97220697    -0.74400
O405        O  0.24768284  0.80914196  0.03692747    -0.74800
O406        O  0.23636083  0.75848631  0.12135175    -0.74800
O407        O  0.26401789  0.73706377  0.11775309    -0.74500
C408        C  0.32921423  0.77096521  0.99620693     0.77200
C409        C  0.24897192  0.75035100  0.86223180     0.77700
C410        C  0.22904075  0.66954821  0.99890475     0.76700
C411        C  0.16807808  0.72653359  0.00421560     0.77100
C412        C  0.26689824  0.82838679  0.00659835     0.78200
C413        C  0.25068327  0.74772922  0.14310773     0.77300
Zn414      Zn  0.27387080  0.73732240  0.54632562     1.49700
Zn415      Zn  0.22386167  0.72056982  0.46067272     1.49400
Zn416      Zn  0.23807911  0.77002776  0.54437439     1.49100
Zn417      Zn  0.28708375  0.78490338  0.45787279     1.49500
O418        O  0.25587014  0.75323664  0.50127068    -1.84000
O419        O  0.25693039  0.69395106  0.53282100    -0.74600
O420        O  0.18285646  0.71647420  0.47249711    -0.74500
O421        O  0.23964961  0.76268283  0.61884876    -0.74000
O422        O  0.22220918  0.68091578  0.47367097    -0.74700
O423        O  0.26809371  0.74218992  0.62048542    -0.74300
O424        O  0.19560467  0.75328469  0.52725300    -0.74800
O425        O  0.29082961  0.82598332  0.47150878    -0.74200
O426        O  0.23287737  0.73011968  0.38678389    -0.75000
O427        O  0.25746998  0.81359570  0.53297481    -0.74400
O428        O  0.27593935  0.77349493  0.38395949    -0.74800
O429        O  0.32763992  0.78804926  0.46975474    -0.74800
O430        O  0.31740553  0.75640683  0.53339379    -0.74500
C431        C  0.23729331  0.67434776  0.50359604     0.77200
C432        C  0.17606040  0.73248044  0.49975666     0.77700
C433        C  0.25308891  0.75190528  0.64321469     0.76700
C434        C  0.27712644  0.83314748  0.50384750     0.77100
C435        C  0.25389862  0.75142856  0.36192324     0.78200
C436        C  0.33578483  0.77529172  0.50200270     0.77300
Zn437      Zn  0.03421980  0.76447378  0.95519052     1.49700
Zn438      Zn  0.49689854  0.71468376  0.04089648     1.49400
Zn439      Zn  0.99950044  0.78032770  0.04007792     1.49100
Zn440      Zn  0.46278806  0.72898386  0.95332391     1.49500
O441        O  0.99881717  0.74852100  0.99788045    -1.84000
O442        O  0.05959298  0.74643893  0.97059403    -0.74600
O443        O  0.49589496  0.72445580  0.11440510    -0.74500
O444        O  0.03683771  0.82073060  0.02456975    -0.74000
O445        O  0.03533166  0.71388028  0.03206116    -0.74700
O446        O  0.05943832  0.80823412  0.96614045    -0.74300
O447        O  0.99981361  0.77040788  0.11421177    -0.74800
O448        O  0.43715959  0.74765189  0.96343573    -0.74200
O449        O  0.46032276  0.67439379  0.02623901    -0.75000
O450        O  0.45981915  0.78068877  0.02490143    -0.74400
O451        O  0.43745982  0.68512633  0.96602834    -0.74800
O452        O  0.47478205  0.73390552  0.88020608    -0.74800
O453        O  0.02432936  0.75835186  0.88135978    -0.74500
C454        C  0.05768325  0.72721399  0.00241571     0.77200
C455        C  0.99746080  0.74777907  0.13737318     0.77700
C456        C  0.05842374  0.82780550  0.99371346     0.76700
C457        C  0.43836852  0.76750726  0.99340398     0.77100
C458        C  0.43884442  0.66638439  0.99510321     0.78200
C459        C  0.99983797  0.74734968  0.85720888     0.77300
Zn460      Zn  0.46842832  0.73381741  0.54115607     1.49700
Zn461      Zn  0.00236939  0.77926675  0.45271621     1.49400
Zn462      Zn  0.03688642  0.76758511  0.54012531     1.49100
Zn463      Zn  0.50437813  0.71924587  0.45660425     1.49500
O464        O  0.50329598  0.75085452  0.49717690    -1.84000
O465        O  0.44324592  0.75254666  0.52962105    -0.74600
O466        O  0.03980389  0.81999907  0.46220613    -0.74500
O467        O  0.02719440  0.76241761  0.61412084    -0.74000
O468        O  0.46578864  0.78430724  0.46635075    -0.74700
O469        O  0.47922279  0.73811525  0.61482436    -0.74300
O470        O  0.06132805  0.81086959  0.52660384    -0.74800
O471        O  0.04250942  0.71625561  0.46790130    -0.74200
O472        O  0.00079123  0.76743480  0.38023283    -0.75000
O473        O  0.06333208  0.75150829  0.52634647    -0.74400
O474        O  0.50361473  0.72794049  0.38189130    -0.74800
O475        O  0.46699601  0.67854963  0.47027482    -0.74800
O476        O  0.44294082  0.69021627  0.52729702    -0.74500
C477        C  0.44442804  0.77158583  0.49802380     0.77200
C478        C  0.06076796  0.82872757  0.49459420     0.77700
C479        C  0.50400756  0.75057088  0.63833734     0.76700
C480        C  0.06403077  0.73206483  0.49815850     0.77100
C481        C  0.50166573  0.74805495  0.35745606     0.78200
C482        C  0.44462992  0.67109599  0.49943525     0.77300
Zn483      Zn  0.27879379  0.49780457  0.04663607     1.49700
Zn484      Zn  0.23242780  0.96586706  0.95529284     1.49400
Zn485      Zn  0.21592936  0.99921311  0.04100993     1.49100
Zn486      Zn  0.26641500  0.53329592  0.96033449     1.49500
O487        O  0.24841932  0.00043260  0.99990478    -1.84000
O488        O  0.28095124  0.96205182  0.03416207    -0.74600
O489        O  0.18829587  0.94031289  0.96504414    -0.74500
O490        O  0.22504540  0.99918456  0.11524147    -0.74000
O491        O  0.24972527  0.93966542  0.97001916    -0.74700
O492        O  0.26943251  0.50008418  0.11966185    -0.74300
O493        O  0.17625099  0.96168685  0.02617546    -0.74800
O494        O  0.24923323  0.55967902  0.97266536    -0.74200
O495        O  0.23933991  0.97752490  0.88223878    -0.75000
O496        O  0.21484529  0.53691616  0.03230106    -0.74400
O497        O  0.26183352  0.52304508  0.88666936    -0.74800
O498        O  0.31008389  0.55729665  0.97318517    -0.74800
O499        O  0.32018023  0.53323930  0.03205523    -0.74500
C500        C  0.26771730  0.94024524  0.00324393     0.77200
C501        C  0.16895110  0.94055596  0.99446502     0.77700
C502        C  0.24704602  0.00060749  0.13907165     0.76700
C503        C  0.22933606  0.55877519  0.00209644     0.77100
C504        C  0.25069228  0.00239196  0.85913499     0.78200
C505        C  0.32856981  0.55515433  0.00178055     0.77300
Zn506      Zn  0.21956262  0.00055753  0.45672288     1.49700
Zn507      Zn  0.28357455  0.49958250  0.45866691     1.49400
Zn508      Zn  0.27206480  0.53461139  0.54676277     1.49100
Zn509      Zn  0.23327994  0.96464376  0.54045239     1.49500
O510        O  0.25087956  0.99997013  0.49809637    -1.84000
O511        O  0.23020241  0.00227060  0.38323373    -0.74600
O512        O  0.32468787  0.53729980  0.46819092    -0.74500
O513        O  0.25626321  0.56192328  0.53488924    -0.74000
O514        O  0.27138352  0.99926661  0.38224094    -0.74700
O515        O  0.22140766  0.54102198  0.47560947    -0.74300
O516        O  0.31580151  0.55909286  0.53273629    -0.74800
O517        O  0.23638490  0.97448589  0.61449956    -0.74200
O518        O  0.28752093  0.96423961  0.46922960    -0.75000
O519        O  0.26628690  0.52332972  0.62050821    -0.74400
O520        O  0.25365645  0.94113662  0.52931990    -0.74800
O521        O  0.19005383  0.93805932  0.52406808    -0.74800
O522        O  0.17981530  0.96224204  0.46546808    -0.74500
C523        C  0.25071318  0.00082270  0.35905240     0.77200
C524        C  0.33363736  0.55862219  0.50011747     0.77700
C525        C  0.23692209  0.56247408  0.50620670     0.76700
C526        C  0.24957984  0.99895056  0.63885625     0.77100
C527        C  0.27417486  0.94277337  0.50057066     0.78200
C528        C  0.17189696  0.93958728  0.49369545     0.77300
C529        C  0.27466325  0.52094356  0.72565290    -0.26200
C530        C  0.24913941  0.99909046  0.69521445    -0.14300
C531        C  0.23797747  0.97279290  0.72478249     0.36300
C532        C  0.23898108  0.97482748  0.77753185    -0.25700
C533        C  0.25074916  0.00241696  0.80273373    -0.14900
C534        C  0.27522586  0.52189767  0.77858041     0.37400
N535        N  0.30080587  0.54608918  0.80264260    -0.84300
H536        H  0.29328190  0.53868328  0.70507726     0.18500
H537        H  0.23035861  0.95429780  0.79892473     0.18500
N538        N  0.22569301  0.94361237  0.70296722    -0.88200
H539        H  0.31006529  0.53731457  0.82739187     0.35900
H540        H  0.29407530  0.55895743  0.82307002     0.41000
H541        H  0.24186569  0.94308480  0.67999047     0.40600
H542        H  0.20694621  0.93893926  0.68146651     0.35500
C543        C  0.26415473  0.48884987  0.22445283    -0.26200
C544        C  0.24742951  0.00080692  0.19539436    -0.14300
C545        C  0.22430851  0.00012369  0.22481693     0.36300
C546        C  0.22591496  0.00013627  0.27782583    -0.25700
C547        C  0.25019001  0.00084383  0.30275406    -0.14900
C548        C  0.26508738  0.48806309  0.27750297     0.37400
N549        N  0.28039802  0.47486079  0.30175400    -0.89100
H550        H  0.27526738  0.47963683  0.20249078     0.18500
H551        H  0.20784636  0.99952094  0.29947730     0.18500
N552        N  0.19910126  0.99943783  0.20140400    -0.88200
H553        H  0.29042678  0.46785358  0.27493441     0.35900
H554        H  0.26431941  0.45561462  0.32043885     0.41000
H555        H  0.19811046  0.01803388  0.21395703     0.40600
H556        H  0.17975220  0.98023975  0.21372140     0.35500
C557        C  0.09972454  0.87268994  0.44766457    -0.26200
C558        C  0.08611678  0.85971736  0.49408698    -0.14300
C559        C  0.09930921  0.87520292  0.53966850     0.36300
C560        C  0.12645820  0.90211695  0.53802130    -0.25700
C561        C  0.14104527  0.91411082  0.49195475    -0.14900
C562        C  0.12717804  0.89957064  0.44615759     0.37400
N563        N  0.14132185  0.91047261  0.39801923    -0.89100
H564        H  0.08996142  0.86094494  0.41254047     0.18500
H565        H  0.13678462  0.91329744  0.57328843     0.18500
N566        N  0.08573138  0.86423819  0.58821502    -0.88200
H567        H  0.16221288  0.91204486  0.39860725     0.35900
H568        H  0.14447526  0.93180467  0.39252421     0.41000
H569        H  0.08558293  0.84449513  0.59637943     0.40600
H570        H  0.06375838  0.85988930  0.58704764     0.35500
C571        C  0.37624429  0.60040975  0.54497811    -0.26200
C572        C  0.36492877  0.58426942  0.49973474    -0.14300
C573        C  0.38221891  0.59518184  0.45493842     0.36300
C574        C  0.40933458  0.62288511  0.45605658    -0.25700
C575        C  0.41931292  0.63984216  0.50080609    -0.14900
C576        C  0.40299628  0.62787539  0.54589087     0.37400
N577        N  0.41329793  0.64381096  0.59280643    -0.89100
H578        H  0.36367340  0.59217201  0.57990953     0.18500
H579        H  0.42186137  0.63199508  0.42133707     0.18500
N580        N  0.37143585  0.57922637  0.40798393    -0.88200
H581        H  0.41597853  0.63012522  0.61863783     0.35900
H582        H  0.39673449  0.64775117  0.60680135     0.41000
H583        H  0.37185324  0.55938540  0.41121228     0.40600
H584        H  0.38595887  0.59117770  0.37828095     0.35500
C585        C  0.02576170  0.76956028  0.77591081    -0.26200
C586        C  0.50097046  0.74520991  0.80151535    -0.14300
C587        C  0.47562300  0.72609451  0.77209696     0.36300
C588        C  0.47736194  0.72849750  0.71916236    -0.25700
C589        C  0.50393328  0.74913510  0.69451066    -0.14900
C590        C  0.02699894  0.77116703  0.72279455     0.37400
N591        N  0.05278629  0.79501515  0.69809770    -0.89100
H592        H  0.04437335  0.78640623  0.79774644     0.18500
H593        H  0.45775688  0.71382040  0.69699876     0.18500
N594        N  0.44824941  0.70409603  0.79581827    -0.88200
H595        H  0.06894497  0.80861016  0.72464201     0.35900
H596        H  0.04599540  0.80847676  0.68001361     0.41000
H597        H  0.45238349  0.68852853  0.81340142     0.40600
H598        H  0.43165676  0.69229466  0.76877219     0.35500
C599        C  0.48504612  0.75940262  0.27635248    -0.26200
C600        C  0.49994710  0.74679335  0.30128309    -0.14300
C601        C  0.00472828  0.72596436  0.27120785     0.36300
C602        C  0.00372161  0.72702340  0.21825290    -0.25700
C603        C  0.49590003  0.74563280  0.19422751    -0.14900
C604        C  0.48265053  0.75875050  0.22325832     0.37400
N605        N  0.46638496  0.77088685  0.19890575    -0.89100
H606        H  0.47477793  0.76943389  0.29846508     0.18500
H607        H  0.00894529  0.71256971  0.19634640     0.18500
N608        N  0.01241535  0.70586517  0.29445184    -0.88200
H609        H  0.45814613  0.77979237  0.22565722     0.35900
H610        H  0.44775419  0.75319265  0.18132709     0.41000
H611        H  0.03346598  0.71095322  0.28109893     0.40600
H612        H  0.99689212  0.68416198  0.28279417     0.35500
C613        C  0.12910238  0.89669963  0.94866289    -0.26200
C614        C  0.13780709  0.91482690  0.99211396    -0.14300
C615        C  0.11779632  0.90613604  0.03364743     0.36300
C616        C  0.09103511  0.87822895  0.03244857    -0.25700
C617        C  0.08372869  0.85907163  0.99051148    -0.14900
C618        C  0.10241075  0.86919729  0.94736219     0.37400
N619        N  0.09465130  0.85144480  0.90218094    -0.89100
H620        H  0.14359730  0.90341033  0.91574098     0.18500
H621        H  0.07654545  0.87085328  0.06536014     0.18500
N622        N  0.12527317  0.92476983  0.07786098    -0.88200
H623        H  0.11182703  0.84710403  0.89410245     0.35900
H624        H  0.09345020  0.86400076  0.87235606     0.41000
H625        H  0.12488043  0.94397512  0.06746071     0.40600
H626        H  0.10891002  0.91433272  0.10586214     0.35500
C627        C  0.37117573  0.59381625  0.95282005    -0.26200
C628        C  0.36010275  0.57956971  0.99956208    -0.14300
C629        C  0.37780982  0.59180011  0.04343857     0.36300
C630        C  0.40461532  0.61922654  0.04030225    -0.25700
C631        C  0.41400301  0.63500086  0.99439044    -0.14900
C632        C  0.39772064  0.62126413  0.94968709     0.37400
N633        N  0.40737888  0.63452679  0.90060861    -0.89100
H634        H  0.35828269  0.58423916  0.91857804     0.18500
H635        H  0.41712013  0.62916805  0.07472099     0.18500
N636        N  0.36833037  0.57801325  0.09211802    -0.88200
H637        H  0.42946342  0.63976854  0.89500375     0.35900
H638        H  0.40624667  0.65400367  0.89865942     0.41000
H639        H  0.36582478  0.55674952  0.09032910     0.40600
H640        H  0.34768978  0.57590246  0.10083077     0.35500
C641        C  0.29571237  0.88429892  0.46657352    -0.26200
C642        C  0.28244301  0.86421574  0.50712848    -0.14300
C643        C  0.27145265  0.87302198  0.54891296     0.36300
C644        C  0.27077094  0.89959221  0.54648372    -0.25700
C645        C  0.28129011  0.91832303  0.50394775    -0.14900
C646        C  0.29564019  0.91150503  0.46484265     0.37400
N647        N  0.30890073  0.93138281  0.42260550    -0.89100
H648        H  0.30498596  0.87820780  0.43509249     0.18500
H649        H  0.26102823  0.90523846  0.57784931     0.18500
N650        N  0.26015504  0.85457229  0.59336236    -0.88200
H651        H  0.31753700  0.92254052  0.39647603     0.35900
H652        H  0.32718586  0.95104209  0.43641817     0.41000
H653        H  0.25220259  0.86387043  0.61993465     0.40600
H654        H  0.27808011  0.85412375  0.61037033     0.35500
C655        C  0.24366285  0.63583076  0.54757219    -0.26200
C656        C  0.23304705  0.64374331  0.50496340    -0.14300
C657        C  0.22129434  0.62342598  0.46390593     0.36300
C658        C  0.22165114  0.59642291  0.46585200    -0.25700
C659        C  0.23353741  0.58928864  0.50775626    -0.14900
C660        C  0.24410853  0.60916349  0.54936170     0.37400
N661        N  0.25563705  0.60261703  0.59367534    -0.89100
H662        H  0.25238612  0.65079989  0.57979745     0.18500
H663        H  0.21355393  0.58138536  0.43368541     0.18500
N664        N  0.21036618  0.63073200  0.41948966    -0.88200
H665        H  0.24310430  0.60241177  0.62489451     0.35900
H666        H  0.27770994  0.61988293  0.59889602     0.41000
H667        H  0.19069829  0.63034059  0.42967262     0.40600
H668        H  0.20435775  0.61429001  0.39167245     0.35500
C669        C  0.09676665  0.71329087  0.46293986    -0.26200
C670        C  0.09102131  0.72892569  0.50076191    -0.14300
C671        C  0.11231523  0.74310011  0.53980148     0.36300
C672        C  0.13876957  0.74237838  0.53924648    -0.25700
C673        C  0.14538968  0.72812855  0.50040299    -0.14900
C674        C  0.12372599  0.71267505  0.46235118     0.37400
N675        N  0.12945949  0.69740271  0.42237849    -0.89100
H676        H  0.08059929  0.70222140  0.43296864     0.18500
H677        H  0.15465114  0.75389481  0.56946306     0.18500
N678        N  0.10761092  0.75879703  0.58019776    -0.88200
H679        H  0.11189614  0.68844046  0.39631664     0.35900
H680        H  0.12979048  0.67923143  0.43861228     0.41000
H681        H  0.12509457  0.78103209  0.57963530     0.40600
H682        H  0.10851809  0.74932550  0.61454111     0.35500
C683        C  0.37964543  0.78059438  0.45479862    -0.26200
C684        C  0.36659287  0.78051663  0.50147349    -0.14300
C685        C  0.38157556  0.78132184  0.54677983     0.36300
C686        C  0.40788574  0.78017679  0.54441423    -0.25700
C687        C  0.41979475  0.77811539  0.49785537    -0.14900
C688        C  0.40585438  0.77912792  0.45249347     0.37400
N689        N  0.41655838  0.77664633  0.40370372    -0.89100
H690        H  0.36835657  0.77977304  0.41983296     0.18500
H691        H  0.41859171  0.77987930  0.57943170     0.18500
N692        N  0.37069299  0.78329088  0.59575713    -0.88200
H693        H  0.41725621  0.75685798  0.40253095     0.35900
H694        H  0.43814630  0.79475612  0.39869275     0.41000
H695        H  0.35041926  0.76377734  0.60294151     0.40600
H696        H  0.36733402  0.80151537  0.59597002     0.35500
C697        C  0.22371072  0.73897381  0.77821393    -0.26200
C698        C  0.25038329  0.75086836  0.80608189    -0.14300
C699        C  0.27786723  0.76242987  0.77960188     0.36300
C700        C  0.27804849  0.76198086  0.72666839    -0.25700
C701        C  0.25152998  0.75090237  0.69901602    -0.14900
C702        C  0.22402367  0.73905901  0.72488331     0.37400
N703        N  0.19655082  0.72674484  0.69689961    -0.89100
H704        H  0.20258400  0.72983863  0.79811650     0.18500
H705        H  0.29920591  0.77087445  0.70689955     0.18500
N706        N  0.30590363  0.77397630  0.80519676    -0.88200
H707        H  0.17831157  0.71894208  0.72156954     0.35900
H708        H  0.19395911  0.70813381  0.67703678     0.41000
H709        H  0.30449675  0.75768872  0.83009764     0.40600
H710        H  0.31026947  0.79300901  0.82564784     0.35500
C711        C  0.22562939  0.74016390  0.22643015    -0.26200
C712        C  0.25176143  0.74779054  0.19905268    -0.14300
C713        C  0.27858933  0.75655155  0.22569058     0.36300
C714        C  0.27885508  0.75813468  0.27860569    -0.25700
C715        C  0.25270803  0.75029462  0.30598725    -0.14900
C716        C  0.22571859  0.74100647  0.27966794     0.37400
N717        N  0.19866572  0.73297725  0.30699910    -0.89100
H718        H  0.20503899  0.73344181  0.20614658     0.18500
H719        H  0.29959289  0.76508481  0.29856403     0.18500
N720        N  0.30608305  0.76479101  0.20011670    -0.88200
H721        H  0.18080389  0.72645097  0.28202220     0.35900
H722        H  0.20171587  0.75213033  0.32559680     0.41000
H723        H  0.31066895  0.78193202  0.17453613     0.40600
H724        H  0.30362042  0.74627597  0.18015010     0.35500
C725        C  0.26540910  0.87020190  0.05137931    -0.26200
C726        C  0.27146647  0.85918103  0.00686361    -0.14300
C727        C  0.27887896  0.87656806  0.96236060     0.36300
C728        C  0.27881844  0.90362660  0.96256789    -0.25700
C729        C  0.27194948  0.91412794  0.00662216    -0.14900
C730        C  0.26556646  0.89744219  0.05173268     0.37400
N731        N  0.25790166  0.90748162  0.09709031    -0.89100
H732        H  0.25965744  0.85706706  0.08576473     0.18500
H733        H  0.28342488  0.91615824  0.92765030     0.18500
N734        N  0.28502692  0.86619447  0.91612727    -0.88200
H735        H  0.25386326  0.89271081  0.12695629     0.35900
H736        H  0.23778895  0.90694972  0.09042116     0.41000
H737        H  0.30632737  0.88236897  0.90372692     0.40600
H738        H  0.26955382  0.86434908  0.88896556     0.35500
C739        C  0.22856040  0.59962881  0.95481413    -0.26200
C740        C  0.22383978  0.58422727  0.00073200    -0.14300
C741        C  0.21736204  0.59544166  0.04477530     0.36300
C742        C  0.21767008  0.62270915  0.04229661    -0.25700
C743        C  0.22374884  0.63875095  0.99675561    -0.14900
C744        C  0.22883534  0.62671449  0.95212056     0.37400
N745        N  0.23595704  0.64180711  0.90402015    -0.89100
H746        H  0.23335362  0.59113372  0.92070137     0.18500
H747        H  0.21405444  0.63203888  0.07651565     0.18500
N748        N  0.21237107  0.58024613  0.09239523    -0.88200
H749        H  0.25757327  0.64691420  0.89411577     0.35900
H750        H  0.23647797  0.66208245  0.90565940     0.41000
H751        H  0.19199328  0.56017327  0.08981767     0.40600
H752        H  0.20982253  0.59247369  0.12151387     0.35500
C753        C  0.09350757  0.71583704  0.96007967    -0.26200
C754        C  0.08263789  0.72125156  0.00516005    -0.14300
C755        C  0.09815620  0.72463575  0.05080474     0.36300
C756        C  0.12496690  0.72432792  0.04991344    -0.25700
C757        C  0.13680757  0.72047788  0.00438387    -0.14900
C758        C  0.12017622  0.71493715  0.95921779     0.37400
N759        N  0.13123885  0.71032570  0.91213540    -0.89100
H760        H  0.08152580  0.71314743  0.92507869     0.18500
H761        H  0.13729408  0.72836938  0.08494212     0.18500
N762        N  0.08830515  0.73037400  0.09802451    -0.88200
H763        H  0.11723088  0.70843518  0.88219580     0.35900
H764        H  0.13017551  0.68971924  0.91450111     0.41000
H765        H  0.06706359  0.71234677  0.10617862     0.40600
H766        H  0.08681954  0.74961795  0.09422618     0.35500
C767        C  0.39598984  0.76732005  0.94799968    -0.26200
C768        C  0.41357185  0.77426290  0.99206853    -0.14300
C769        C  0.40529376  0.78473805  0.03519557     0.36300
C770        C  0.37822904  0.78493710  0.03487766    -0.25700
C771        C  0.36003444  0.77644613  0.99173916    -0.14900
C772        C  0.36957750  0.76871362  0.94720360     0.37400
N773        N  0.35140670  0.76040788  0.90238591    -0.89100
H774        H  0.40240145  0.75990046  0.91436959     0.18500
H775        H  0.37083868  0.79100409  0.06894721     0.18500
N776        N  0.42343341  0.79365661  0.08006211    -0.88200
H777        H  0.36102663  0.75430983  0.87336794     0.35900
H778        H  0.35128336  0.77939860  0.88971894     0.41000
H779        H  0.44333894  0.81334882  0.07145410     0.40600
H780        H  0.41329808  0.79913953  0.10906874     0.35500
Zn781      Zn  0.76761508  0.23479758  0.05244831     1.49700
Zn782      Zn  0.77970130  0.28283926  0.96587403     1.49400
Zn783      Zn  0.71773774  0.21963606  0.96701895     1.49100
Zn784      Zn  0.73086998  0.26835528  0.05344857     1.49500
O785        O  0.74895221  0.25136316  0.00934484    -1.84000
O786        O  0.81168625  0.25428645  0.03833401    -0.74600
O787        O  0.76966597  0.27316762  0.89167434    -0.74500
O788        O  0.71494598  0.17953887  0.98045980    -0.74000
O789        O  0.82035492  0.28679158  0.97664789    -0.74700
O790        O  0.74959982  0.19058294  0.03938818    -0.74300
O791        O  0.72830519  0.22850906  0.89290686    -0.74800
O792        O  0.68685454  0.25002869  0.03945686    -0.74200
O793        O  0.78242333  0.32254996  0.97909756    -0.75000
O794        O  0.67742584  0.21740035  0.97729327    -0.74400
O795        O  0.74956174  0.31246559  0.04110661    -0.74800
O796        O  0.73597691  0.26288731  0.12727878    -0.74800
O797        O  0.76316818  0.24093355  0.12641430    -0.74500
C798        C  0.82931305  0.27382660  0.00680027     0.77200
C799        C  0.74905896  0.25045542  0.86877091     0.77700
C800        C  0.72953323  0.17187059  0.00952851     0.76700
C801        C  0.66897696  0.23094045  0.00755431     0.77100
C802        C  0.76892242  0.33067072  0.00987389     0.78200
C803        C  0.74996866  0.25223042  0.15036216     0.77300
Zn804      Zn  0.76510276  0.22885331  0.55175291     1.49700
Zn805      Zn  0.71769942  0.21655124  0.46390101     1.49400
Zn806      Zn  0.73182714  0.26536269  0.55062274     1.49100
Zn807      Zn  0.78148073  0.27918671  0.46692069     1.49500
O808        O  0.74904115  0.24745774  0.50785789    -1.84000
O809        O  0.74505463  0.18488405  0.53784685    -0.74600
O810        O  0.67719801  0.21281607  0.47592541    -0.74500
O811        O  0.73666632  0.26036604  0.62503936    -0.74000
O812        O  0.71427907  0.17581388  0.47332504    -0.74700
O813        O  0.76034920  0.23486985  0.62632132    -0.74300
O814        O  0.68826404  0.24734046  0.53497201    -0.74800
O815        O  0.78762746  0.32064701  0.48245082    -0.74200
O816        O  0.72771611  0.22857753  0.39094226    -0.75000
O817        O  0.75154796  0.30944221  0.53849586    -0.74400
O818        O  0.77131430  0.27129205  0.39302780    -0.74800
O819        O  0.82029487  0.27928166  0.47644028    -0.74800
O820        O  0.80875864  0.24539597  0.53685576    -0.74500
C821        C  0.72653623  0.16697749  0.50528001     0.77200
C822        C  0.66947296  0.22730227  0.50515713     0.77700
C823        C  0.74870563  0.24808548  0.64939056     0.76700
C824        C  0.77317184  0.32853656  0.51158215     0.77100
C825        C  0.74941480  0.25066364  0.36863102     0.78200
C826        C  0.82749509  0.26459621  0.50599111     0.77300
Zn827      Zn  0.53389182  0.27010265  0.95263508     1.49700
Zn828      Zn  0.99580943  0.21828452  0.03864811     1.49400
Zn829      Zn  0.49796745  0.28367564  0.03806136     1.49100
Zn830      Zn  0.96121821  0.23349723  0.95442809     1.49500
O831        O  0.49858590  0.25248768  0.99580544    -1.84000
O832        O  0.56038459  0.25295489  0.96571909    -0.74600
O833        O  0.99705262  0.22833934  0.11246316    -0.74500
O834        O  0.53440268  0.32503908  0.02378902    -0.74000
O835        O  0.53677732  0.21866950  0.02508853    -0.74700
O836        O  0.55825476  0.31375525  0.96590674    -0.74300
O837        O  0.49975683  0.27430459  0.11156442    -0.74800
O838        O  0.93738437  0.25368548  0.96727667    -0.74200
O839        O  0.95772241  0.17817002  0.02739983    -0.75000
O840        O  0.96123018  0.28572917  0.02972644    -0.74400
O841        O  0.93441122  0.18996287  0.96970967    -0.74800
O842        O  0.97148832  0.23673921  0.88011138    -0.74800
O843        O  0.52360983  0.26479226  0.87872216    -0.74500
C844        C  0.55905619  0.23307713  0.99545901     0.77200
C845        C  0.50007400  0.25302461  0.13493629     0.77700
C846        C  0.55650961  0.33279228  0.99386043     0.76700
C847        C  0.93935709  0.27312389  0.99902447     0.77100
C848        C  0.93546692  0.17086294  0.99835091     0.78200
C849        C  0.49892807  0.25256079  0.85489453     0.77300
Zn850      Zn  0.96554631  0.23148854  0.53882331     1.49700
Zn851      Zn  0.50143190  0.28280132  0.45168322     1.49400
Zn852      Zn  0.53645618  0.26946864  0.53697271     1.49100
Zn853      Zn  0.00159088  0.21878001  0.45318082     1.49500
O854        O  0.00043299  0.25001292  0.49491826    -1.84000
O855        O  0.93963002  0.24877885  0.52643458    -0.74600
O856        O  0.53882768  0.32389968  0.46402548    -0.74500
O857        O  0.52668545  0.26505339  0.61106070    -0.74000
O858        O  0.96147429  0.28213533  0.46478876    -0.74700
O859        O  0.97534194  0.23553923  0.61281379    -0.74300
O860        O  0.56174574  0.31295478  0.52377365    -0.74800
O861        O  0.53833709  0.21544622  0.46690498    -0.74200
O862        O  0.50173368  0.27219140  0.37842586    -0.75000
O863        O  0.56119853  0.25104008  0.52457566    -0.74400
O864        O  0.00237309  0.22895071  0.37954756    -0.74800
O865        O  0.96385310  0.17825642  0.46322329    -0.74800
O866        O  0.94054524  0.18807175  0.52438190    -0.74500
C867        C  0.93987303  0.26769326  0.49570031     0.77200
C868        C  0.56053535  0.33177199  0.49472961     0.77700
C869        C  0.99999476  0.24854009  0.63660996     0.76700
C870        C  0.55998072  0.23020079  0.49749834     0.77100
C871        C  0.00136146  0.24974880  0.35582633     0.78200
C872        C  0.94190015  0.16996934  0.49357139     0.77300
Zn873      Zn  0.77631546  0.99798151  0.04037072     1.49700
Zn874      Zn  0.73163696  0.46550221  0.95780740     1.49400
Zn875      Zn  0.71790617  0.50105210  0.04339277     1.49100
Zn876      Zn  0.76293779  0.03389774  0.95552746     1.49500
O877        O  0.74912933  0.50046341  0.00144108    -1.84000
O878        O  0.78174244  0.46268452  0.03468539    -0.74600
O879        O  0.68742480  0.44158826  0.96904738    -0.74500
O880        O  0.72697199  0.50090910  0.11791017    -0.74000
O881        O  0.74837955  0.43918256  0.97377173    -0.74700
O882        O  0.76556802  0.99749240  0.11330920    -0.74300
O883        O  0.67705054  0.46465640  0.02968427    -0.74800
O884        O  0.74540402  0.06013480  0.96904118    -0.74200
O885        O  0.73888876  0.47578565  0.88361189    -0.75000
O886        O  0.71232481  0.03685823  0.03047879    -0.74400
O887        O  0.75833563  0.02361130  0.88159877    -0.74800
O888        O  0.80657934  0.05912691  0.97028366    -0.74800
O889        O  0.81701520  0.03572370  0.02998127    -0.74500
C890        C  0.76762003  0.44046944  0.00503359     0.77200
C891        C  0.66874105  0.44313216  0.99843601     0.77700
C892        C  0.74841949  0.50105129  0.14154773     0.76700
C893        C  0.72647404  0.05913854  0.00088832     0.77100
C894        C  0.75147410  0.50063495  0.86028968     0.78200
C895        C  0.82500237  0.05797258  0.00055897     0.77300
Zn896      Zn  0.72284738  0.50163731  0.46011778     1.49700
Zn897      Zn  0.78217754  0.99942448  0.45235655     1.49400
Zn898      Zn  0.76877555  0.03383645  0.54053395     1.49100
Zn899      Zn  0.73476279  0.46368392  0.54321159     1.49500
O900        O  0.75350382  0.49924333  0.50077214    -1.84000
O901        O  0.73227206  0.50153030  0.38624169    -0.74600
O902        O  0.82167223  0.03794396  0.46176222    -0.74500
O903        O  0.74985828  0.05891252  0.53003105    -0.74000
O904        O  0.77265954  0.49708237  0.38432109    -0.74700
O905        O  0.71647004  0.03681007  0.46889794    -0.74300
O906        O  0.81256865  0.05993038  0.52615953    -0.74800
O907        O  0.73968873  0.47379185  0.61732225    -0.74200
O908        O  0.78779703  0.46111287  0.47242309    -0.75000
O909        O  0.76312438  0.02219882  0.61392362    -0.74400
O910        O  0.75333780  0.43833284  0.53191889    -0.74800
O911        O  0.69080989  0.43899040  0.52801436    -0.74800
O912        O  0.68168602  0.46502484  0.47148034    -0.74500
C913        C  0.75220107  0.49928867  0.36160187     0.77200
C914        C  0.83023464  0.05945999  0.49309070     0.77700
C915        C  0.72989383  0.05791715  0.50085429     0.76700
C916        C  0.75363003  0.49836420  0.64128294     0.77100
C917        C  0.77381851  0.43958295  0.50353670     0.78200
C918        C  0.67284259  0.44192396  0.49909643     0.77300
C919        C  0.75880399  0.02410931  0.71866216    -0.26200
C920        C  0.75349397  0.49849973  0.69725363    -0.14300
C921        C  0.75330540  0.47557475  0.72643234     0.36300
C922        C  0.75283995  0.47698714  0.77928981    -0.25700
C923        C  0.75275306  0.50087093  0.80424328    -0.14900
C924        C  0.75860922  0.02573861  0.77144634     0.37400
N925        N  0.76982581  0.05469836  0.79360111    -0.84300
H926        H  0.76736091  0.04471239  0.69749902     0.18500
H927        H  0.75278452  0.45929005  0.80105303     0.18500
N928        N  0.75451113  0.45109742  0.70379101    -0.88200
H929        H  0.78832117  0.05972302  0.81613225     0.35900
H930        H  0.75299928  0.05463100  0.81555156     0.41000
H931        H  0.77314975  0.45962227  0.67990016     0.40600
H932        H  0.73514760  0.43831553  0.68254253     0.35500
C933        C  0.76349861  0.98914709  0.21792668    -0.26200
C934        C  0.74879478  0.50077740  0.19792619    -0.14300
C935        C  0.72426059  0.49654303  0.22764403     0.36300
C936        C  0.72584372  0.49599358  0.28067580    -0.25700
C937        C  0.75144772  0.49949658  0.30528412    -0.14900
C938        C  0.76545639  0.98939130  0.27082516     0.37400
N939        N  0.78510884  0.98109966  0.29406565    -0.89100
H940        H  0.77716321  0.98285331  0.19607242     0.18500
H941        H  0.70670155  0.49261344  0.30262401     0.18500
N942        N  0.69752237  0.49247626  0.20446331    -0.88200
H943        H  0.80677808  0.99552571  0.28083253     0.35900
H944        H  0.77877626  0.95943828  0.28232481     0.41000
H945        H  0.69366917  0.50919765  0.21786750     0.40600
H946        H  0.67970018  0.47184760  0.21610764     0.35500
C947        C  0.59752558  0.37934097  0.45180120    -0.26200
C948        C  0.58573557  0.36304082  0.49668998    -0.14300
C949        C  0.60064445  0.37533024  0.54282480     0.36300
C950        C  0.62817721  0.40209181  0.54285444    -0.25700
C951        C  0.64126162  0.41726435  0.49761089    -0.14900
C952        C  0.62513011  0.40624687  0.45174953     0.37400
N953        N  0.63701918  0.42073421  0.40422583    -0.89100
H954        H  0.58624873  0.37020108  0.41612097     0.18500
H955        H  0.63989392  0.41053797  0.57843652     0.18500
N956        N  0.58810306  0.36034638  0.58979632    -0.88200
H957        H  0.65771196  0.42234551  0.39837553     0.35900
H958        H  0.64012295  0.44223975  0.40592918     0.41000
H959        H  0.58527698  0.37495105  0.61336430     0.40600
H960        H  0.60345404  0.35575971  0.60699929     0.35500
C961        C  0.87594987  0.09722456  0.53711975    -0.26200
C962        C  0.86118558  0.08499083  0.49123050    -0.14300
C963        C  0.87494626  0.09919561  0.44515207     0.36300
C964        C  0.90263474  0.12614201  0.44635208    -0.25700
C965        C  0.91650137  0.13904152  0.49257350    -0.14900
C966        C  0.90343540  0.12398773  0.53811524     0.37400
N967        N  0.91790743  0.13611599  0.58558252    -0.89100
H968        H  0.86569253  0.08633833  0.57259588     0.18500
H969        H  0.91254770  0.13797788  0.41138783     0.18500
N970        N  0.85982790  0.08750753  0.39778359    -0.88200
H971        H  0.92160941  0.12026820  0.60320762     0.35900
H972        H  0.90333854  0.13942313  0.60839978     0.41000
H973        H  0.85930899  0.06741788  0.39097792     0.40600
H974        H  0.87203655  0.10176244  0.36798123     0.35500
C975        C  0.52640925  0.27053706  0.77302129    -0.26200
C976        C  0.99681947  0.24678716  0.80027605    -0.14300
C977        C  0.97090743  0.22869241  0.77139655     0.36300
C978        C  0.97258663  0.22940347  0.71834168    -0.25700
C979        C  0.99973410  0.24768383  0.69291308    -0.14900
C980        C  0.52793744  0.27117474  0.71997060     0.37400
N981        N  0.55602732  0.29030417  0.69569329    -0.89100
H982        H  0.54670459  0.28447513  0.79419307     0.18500
H983        H  0.95234598  0.21548366  0.69703218     0.18500
N984        N  0.94283952  0.20929940  0.79550562    -0.88200
H985        H  0.57134062  0.28422837  0.70800887     0.35900
H986        H  0.56364433  0.31224104  0.70749698     0.41000
H987        H  0.93553892  0.18741499  0.78375650     0.40600
H988        H  0.92734768  0.21507783  0.78295728     0.35500
C989        C  0.98857306  0.26460773  0.27459201    -0.26200
C990        C  0.00082198  0.24945473  0.29965185    -0.14300
C991        C  0.51175249  0.23495822  0.26906746     0.36300
C992        C  0.51079139  0.23579019  0.21602169    -0.25700
C993        C  0.99827350  0.24977541  0.19262798    -0.14900
C994        C  0.98706469  0.26477491  0.22166757     0.37400
N995        N  0.97333297  0.27952692  0.19773087    -0.89100
H996        H  0.97958727  0.27606451  0.29618967     0.18500
H997        H  0.51813117  0.22294990  0.19424612     0.18500
N998        N  0.52285691  0.21772388  0.29274524    -0.88200
H999        H  0.98487648  0.30195096  0.20883671     0.35900
H1000       H  0.95137556  0.26989344  0.21105859     0.41000
H1001       H  0.54466640  0.22560867  0.27985251     0.40600
H1002       H  0.50967496  0.19554087  0.28091132     0.35500
C1003       C  0.62719322  0.40196293  0.95099716    -0.26200
C1004       C  0.63704658  0.41858254  0.99599506    -0.14300
C1005       C  0.61757941  0.40931686  0.03835208     0.36300
C1006       C  0.59011243  0.38202264  0.03604723    -0.25700
C1007       C  0.58174741  0.36413378  0.99224875    -0.14900
C1008       C  0.59991375  0.37511968  0.94867262     0.37400
N1009       N  0.59108114  0.35871739  0.90201966    -0.89100
H1010       H  0.64130317  0.40925383  0.91757907     0.18500
H1011       H  0.57604794  0.37392926  0.06942934     0.18500
N1012       N  0.62638474  0.42652545  0.08435305    -0.88200
H1013       H  0.60760743  0.35385164  0.89157938     0.35900
H1014       H  0.59012804  0.37246740  0.87413636     0.41000
H1015       H  0.62701320  0.44660464  0.07690921     0.40600
H1016       H  0.61020773  0.41577696  0.11250450     0.35500
C1017       C  0.86830103  0.09805764  0.95478686    -0.26200
C1018       C  0.85599575  0.08379529  0.00102570    -0.14300
C1019       C  0.87192288  0.09690602  0.04630319     0.36300
C1020       C  0.89870280  0.12459363  0.04438719    -0.25700
C1021       C  0.90976535  0.13980050  0.99825529    -0.14900
C1022       C  0.89472927  0.12569450  0.95284639     0.37400
N1023       N  0.90576941  0.13871394  0.90402748    -0.89100
H1024       H  0.85664921  0.08808995  0.91968875     0.18500
H1025       H  0.91005691  0.13500585  0.07946554     0.18500
N1026       N  0.86067212  0.08360762  0.09483842    -0.88200
H1027       H  0.92793920  0.14384297  0.90061761     0.35900
H1028       H  0.90485886  0.15827452  0.90071135     0.41000
H1029       H  0.85875919  0.06258576  0.09535989     0.40600
H1030       H  0.83946516  0.08093761  0.09987913     0.35500
C1031       C  0.79037215  0.37779277  0.46900215    -0.26200
C1032       C  0.78014242  0.36009176  0.51289493    -0.14300
C1033       C  0.77323529  0.37157330  0.55597758     0.36300
C1034       C  0.77320642  0.39848566  0.55270705    -0.25700
C1035       C  0.78043432  0.41481336  0.50729806    -0.14900
C1036       C  0.79086333  0.40521781  0.46584652     0.37400
N1037       N  0.80022078  0.42227149  0.41980713    -0.89100
H1038       H  0.79639059  0.36944995  0.43609756     0.18500
H1039       H  0.76645216  0.40612169  0.58567632     0.18500
N1040       N  0.76571237  0.35568970  0.60306555    -0.88200
H1041       H  0.80580345  0.41136542  0.39235909     0.35900
H1042       H  0.81991344  0.44230952  0.42775728     0.41000
H1043       H  0.74435080  0.35099154  0.61373988     0.40600
H1044       H  0.78082531  0.36974211  0.63053608     0.35500
C1045       C  0.72576910  0.12445655  0.54929739    -0.26200
C1046       C  0.72068263  0.13577234  0.50454493    -0.14300
C1047       C  0.71393681  0.11860680  0.45957881     0.36300
C1048       C  0.71537797  0.09215607  0.45961584    -0.25700
C1049       C  0.72316765  0.08248923  0.50362433    -0.14900
C1050       C  0.72692571  0.09811459  0.54927833     0.37400
N1051       N  0.73230120  0.08749757  0.59582074    -0.89100
H1052       H  0.72998559  0.13673364  0.58450521     0.18500
H1053       H  0.71190484  0.07991168  0.42458214     0.18500
N1054       N  0.70742011  0.12883867  0.41349256    -0.88200
H1055       H  0.71540913  0.08398026  0.62141557     0.35900
H1056       H  0.75266015  0.10422504  0.61057274     0.41000
H1057       H  0.68686113  0.12766423  0.41848458     0.40600
H1058       H  0.70450955  0.11441085  0.38351704     0.35500
C1059       C  0.59276958  0.21200757  0.46102426    -0.26200
C1060       C  0.58494021  0.22408168  0.50195116    -0.14300
C1061       C  0.60283941  0.23275504  0.54595671     0.36300
C1062       C  0.62914386  0.23166563  0.54674308    -0.25700
C1063       C  0.63847949  0.22202723  0.50455825    -0.14900
C1064       C  0.61936905  0.21076997  0.46186104     0.37400
N1065       N  0.62763036  0.19964378  0.41862123    -0.89100
H1066       H  0.57889992  0.20484359  0.42742970     0.18500
H1067       H  0.64291455  0.23946550  0.58044812     0.18500
N1068       N  0.59473065  0.24326746  0.59002224    -0.88200
H1069       H  0.61188556  0.19368726  0.38967943     0.35900
H1070       H  0.62682248  0.17992941  0.42965754     0.41000
H1071       H  0.61207185  0.26495362  0.59794495     0.40600
H1072       H  0.59278674  0.22962082  0.62055615     0.35500
C1073       C  0.87033436  0.26919630  0.45590982    -0.26200
C1074       C  0.85798342  0.26908547  0.50342427    -0.14300
C1075       C  0.87435819  0.27157155  0.54769150     0.36300
C1076       C  0.90194696  0.27309888  0.54368234    -0.25700
C1077       C  0.91371855  0.27184420  0.49642671    -0.14900
C1078       C  0.89777664  0.27015240  0.45198504     0.37400
N1079       N  0.90792808  0.26751028  0.40278296    -0.89100
H1080       H  0.85787663  0.26701598  0.42170455     0.18500
H1081       H  0.91390197  0.27431277  0.57804808     0.18500
N1082       N  0.86368128  0.27278714  0.59723906    -0.88200
H1083       H  0.91037776  0.24870672  0.40246587     0.35900
H1084       H  0.92875316  0.28645765  0.39607642     0.41000
H1085       H  0.84408968  0.25262332  0.60461051     0.40600
H1086       H  0.85898438  0.29013974  0.59806671     0.35500
C1087       C  0.75150307  0.27385036  0.78558611    -0.26200
C1088       C  0.74919435  0.24961174  0.81281224    -0.14300
C1089       C  0.74742274  0.22514590  0.78602664     0.36300
C1090       C  0.74773331  0.22530648  0.73297232    -0.25700
C1091       C  0.74915833  0.24915081  0.70558696    -0.14900
C1092       C  0.75119508  0.27370711  0.73236996     0.37400
N1093       N  0.75363224  0.29885508  0.70574204    -0.89100
H1094       H  0.75316356  0.29285065  0.80573734     0.18500
H1095       H  0.74639364  0.20639877  0.71302165     0.18500
N1096       N  0.74614004  0.20023592  0.81166354    -0.88200
H1097       H  0.77352650  0.31788073  0.71677165     0.35900
H1098       H  0.73585756  0.30164113  0.71695429     0.41000
H1099       H  0.72664506  0.18970422  0.83343813     0.40600
H1100       H  0.76459222  0.20820610  0.83576201     0.35500
C1101       C  0.72399524  0.24491429  0.23248788    -0.26200
C1102       C  0.75050246  0.25271659  0.20620153    -0.14300
C1103       C  0.77697273  0.26126532  0.23379619     0.36300
C1104       C  0.77621324  0.26120356  0.28668621    -0.25700
C1105       C  0.74945524  0.25220431  0.31292660    -0.14900
C1106       C  0.72314041  0.24442242  0.28567186     0.37400
N1107       N  0.69581414  0.23640844  0.31206956    -0.89100
H1108       H  0.70378922  0.23877356  0.21140549     0.18500
H1109       H  0.79657334  0.26755672  0.30745841     0.18500
N1110       N  0.80506026  0.27080901  0.20929796    -0.88200
H1111       H  0.67853297  0.23121260  0.28640663     0.35900
H1112       H  0.69915107  0.25520794  0.33224876     0.41000
H1113       H  0.80961950  0.28845543  0.18489244     0.40600
H1114       H  0.80352676  0.25305876  0.18816317     0.35500
C1115       C  0.77670004  0.37666880  0.05314889    -0.26200
C1116       C  0.77424987  0.36141232  0.00777569    -0.14300
C1117       C  0.77272424  0.37391671  0.96130985     0.36300
C1118       C  0.77169576  0.40040143  0.96148487    -0.25700
C1119       C  0.77286346  0.41504105  0.00691063    -0.14900
C1120       C  0.77630152  0.40356644  0.05322387     0.37400
N1121       N  0.77791215  0.41837648  0.10021762    -0.89100
H1122       H  0.77786432  0.36698082  0.08876320     0.18500
H1123       H  0.76928980  0.40936054  0.92593946     0.18500
N1124       N  0.77015439  0.35866287  0.91439541    -0.88200
H1125       H  0.78076328  0.40719157  0.13060640     0.35900
H1126       H  0.75732571  0.41705742  0.10581848     0.41000
H1127       H  0.79053569  0.35969054  0.90797628     0.40600
H1128       H  0.76721723  0.36984378  0.88409614     0.35500
C1129       C  0.71968370  0.09852154  0.95995791    -0.26200
C1130       C  0.72228834  0.08533466  0.00457439    -0.14300
C1131       C  0.72494799  0.09967904  0.05144404     0.36300
C1132       C  0.72622332  0.12745145  0.05235020    -0.25700
C1133       C  0.72423183  0.14093101  0.00759863    -0.14900
C1134       C  0.72034871  0.12593802  0.96112102     0.37400
N1135       N  0.71882269  0.13928313  0.91465924    -0.89100
H1136       H  0.71798005  0.08788189  0.92375258     0.18500
H1137       H  0.72939746  0.13895916  0.08812284     0.18500
N1138       N  0.72836432  0.08703930  0.09754362    -0.88200
H1139       H  0.69874607  0.12438856  0.89669994     0.35900
H1140       H  0.73639987  0.14212397  0.89135347     0.41000
H1141       H  0.70813297  0.06741643  0.10463884     0.40600
H1142       H  0.73189049  0.10124478  0.12821920     0.35500
C1143       C  0.59380188  0.22195858  0.04337394    -0.26200
C1144       C  0.58471423  0.22783547  0.99684483    -0.14300
C1145       C  0.60195086  0.23133269  0.95312827     0.36300
C1146       C  0.62827596  0.23003557  0.95691505    -0.25700
C1147       C  0.63833930  0.22612440  0.00389713    -0.14900
C1148       C  0.62064678  0.22146476  0.04745457     0.37400
N1149       N  0.63036170  0.21687988  0.09577898    -0.89100
H1150       H  0.58072715  0.21924045  0.07711156     0.18500
H1151       H  0.64177316  0.23376661  0.92331569     0.18500
N1152       N  0.59302741  0.23662105  0.90480488    -0.88200
H1153       H  0.63059627  0.19689637  0.09367884     0.35900
H1154       H  0.61498625  0.21400383  0.12407880     0.41000
H1155       H  0.59042236  0.21971558  0.88007103     0.40600
H1156       H  0.61031255  0.25695172  0.89091879     0.35500
C1157       C  0.89916304  0.27744525  0.95610304    -0.26200
C1158       C  0.91477075  0.27985902  0.00093811    -0.14300
C1159       C  0.90414790  0.28474224  0.04732054     0.36300
C1160       C  0.87668455  0.28411642  0.04823742    -0.25700
C1161       C  0.86036213  0.27997883  0.00363373    -0.14900
C1162       C  0.87229642  0.27773210  0.95705534     0.37400
N1163       N  0.85615316  0.27365434  0.91097244    -0.89100
H1164       H  0.90722326  0.27407061  0.92021097     0.18500
H1165       H  0.86753122  0.28603222  0.08405413     0.18500
N1166       N  0.92015264  0.28839945  0.09365515    -0.88200
H1167       H  0.85164744  0.25341401  0.89468974     0.35900
H1168       H  0.86999504  0.29085623  0.88616349     0.41000
H1169       H  0.94015247  0.30889332  0.09157219     0.40600
H1170       H  0.90840391  0.29003549  0.12453255     0.35500
Zn1171     Zn  0.76639938  0.73182945  0.04820241     1.49700
Zn1172     Zn  0.77980585  0.78056851  0.96342860     1.49400
Zn1173     Zn  0.71729974  0.71779818  0.96107097     1.49100
Zn1174     Zn  0.72938585  0.76514237  0.04908465     1.49500
O1175       O  0.74820736  0.74886288  0.00513000    -1.84000
O1176       O  0.81073609  0.75077606  0.03593550    -0.74600
O1177       O  0.77096222  0.77039902  0.88933525    -0.74500
O1178       O  0.71520039  0.67824147  0.97206859    -0.74000
O1179       O  0.82053385  0.78432166  0.97573952    -0.74700
O1180       O  0.74882114  0.68832471  0.03268493    -0.74300
O1181       O  0.72740242  0.72792249  0.88698628    -0.74800
O1182       O  0.68515560  0.74532220  0.03558496    -0.74200
O1183       O  0.78132014  0.82023446  0.97531257    -0.75000
O1184       O  0.67643917  0.71317219  0.97310260    -0.74400
O1185       O  0.74706469  0.80917470  0.03530132    -0.74800
O1186       O  0.73458476  0.75976491  0.12340765    -0.74800
O1187       O  0.76065112  0.73660255  0.12209039    -0.74500
C1188       C  0.82892239  0.77055992  0.00528318     0.77200
C1189       C  0.74979753  0.74923106  0.86453509     0.77700
C1190       C  0.72956543  0.67038383  0.00111345     0.76700
C1191       C  0.66742530  0.72584049  0.00401952     0.77100
C1192       C  0.76671071  0.82781125  0.00476164     0.78200
C1193       C  0.74790009  0.74828332  0.14628127     0.77300
Zn1194     Zn  0.77334653  0.73603359  0.54799208     1.49700
Zn1195     Zn  0.72293852  0.71999179  0.46404029     1.49400
Zn1196     Zn  0.73840734  0.77066217  0.54713593     1.49100
Zn1197     Zn  0.78660009  0.78360443  0.45989879     1.49500
O1198       O  0.75535994  0.75261168  0.50405464    -1.84000
O1199       O  0.75585143  0.69230817  0.53457618    -0.74600
O1200       O  0.68234145  0.71622736  0.47802926    -0.74500
O1201       O  0.74089183  0.76329424  0.62157864    -0.74000
O1202       O  0.72115165  0.67997422  0.47563063    -0.74700
O1203       O  0.76784074  0.74107428  0.62219810    -0.74300
O1204       O  0.69516843  0.75378276  0.53147851    -0.74800
O1205       O  0.79138065  0.82494869  0.47251148    -0.74200
O1206       O  0.73084115  0.72985771  0.38990179    -0.75000
O1207       O  0.75875605  0.81481460  0.53473736    -0.74400
O1208       O  0.77446177  0.77258657  0.38676121    -0.74800
O1209       O  0.82693933  0.78603156  0.46987133    -0.74800
O1210       O  0.81695570  0.75476256  0.53396721    -0.74500
C1211       C  0.73607188  0.67296187  0.50516718     0.77200
C1212       C  0.67553929  0.73242832  0.50476404     0.77700
C1213       C  0.75367279  0.75158909  0.64542569     0.76700
C1214       C  0.77849166  0.83334928  0.50428597     0.77100
C1215       C  0.75185993  0.75109861  0.36491401     0.78200
C1216       C  0.83518487  0.77328010  0.50191878     0.77300
Zn1217     Zn  0.53305210  0.76278002  0.95663936     1.49700
Zn1218     Zn  0.99802379  0.71698684  0.04018585     1.49400
Zn1219     Zn  0.49680041  0.77750726  0.03989247     1.49100
Zn1220     Zn  0.96381891  0.73189179  0.95411836     1.49500
O1221       O  0.49727778  0.74602072  0.99833257    -1.84000
O1222       O  0.55849021  0.74492547  0.97143104    -0.74600
O1223       O  0.99597977  0.72582897  0.11324228    -0.74500
O1224       O  0.53410234  0.81835429  0.02640435    -0.74000
O1225       O  0.53397802  0.71115892  0.03100761    -0.74700
O1226       O  0.55759372  0.80637722  0.96901495    -0.74300
O1227       O  0.49582411  0.76729182  0.11444523    -0.74800
O1228       O  0.93836805  0.75038758  0.96789758    -0.74200
O1229       O  0.96158568  0.67693022  0.02542346    -0.75000
O1230       O  0.96188550  0.78321879  0.02943214    -0.74400
O1231       O  0.93821565  0.68800552  0.96659685    -0.74800
O1232       O  0.97497485  0.73693713  0.88028847    -0.74800
O1233       O  0.52413682  0.75716273  0.88249190    -0.74500
C1234       C  0.55645568  0.72500311  0.00173693     0.77200
C1235       C  0.49560772  0.74574572  0.13802347     0.77700
C1236       C  0.55603992  0.82576952  0.99623734     0.76700
C1237       C  0.93975970  0.76974013  0.99927928     0.77100
C1238       C  0.93977465  0.66918939  0.99522264     0.78200
C1239       C  0.49984990  0.74525706  0.85764547     0.77300
Zn1240     Zn  0.96752880  0.73166197  0.54011407     1.49700
Zn1241     Zn  0.50240678  0.78091831  0.45329590     1.49400
Zn1242     Zn  0.53825245  0.77022827  0.54041739     1.49100
Zn1243     Zn  0.00375866  0.71718484  0.45564355     1.49500
O1244       O  0.00244399  0.74867787  0.49641344    -1.84000
O1245       O  0.94224861  0.74996393  0.52622192    -0.74600
O1246       O  0.53929952  0.82176837  0.46319027    -0.74500
O1247       O  0.52857944  0.76388920  0.61431240    -0.74000
O1248       O  0.96576257  0.78296558  0.46486088    -0.74700
O1249       O  0.97779474  0.73705305  0.61436553    -0.74300
O1250       O  0.56180894  0.81403082  0.52796104    -0.74800
O1251       O  0.54246216  0.71732525  0.47109634    -0.74200
O1252       O  0.50076248  0.76923603  0.38024846    -0.75000
O1253       O  0.56503618  0.75411730  0.52682140    -0.74400
O1254       O  0.00178960  0.72519851  0.38108263    -0.74800
O1255       O  0.96726384  0.67635860  0.47093272    -0.74800
O1256       O  0.94277914  0.68787992  0.52737465    -0.74500
C1257       C  0.94388128  0.76956259  0.49542081     0.77200
C1258       C  0.56034703  0.83126463  0.49554032     0.77700
C1259       C  0.00254446  0.74980239  0.63800243     0.76700
C1260       C  0.56448466  0.73337336  0.50037623     0.77100
C1261       C  0.00058775  0.74582050  0.35699974     0.78200
C1262       C  0.94490864  0.66878125  0.50014972     0.77300
Zn1263     Zn  0.77983708  0.50034646  0.04460351     1.49700
Zn1264     Zn  0.72846592  0.96337317  0.95416787     1.49400
Zn1265     Zn  0.71355288  0.99835356  0.03984744     1.49100
Zn1266     Zn  0.76755112  0.53529540  0.95788151     1.49500
O1267       O  0.74527421  0.99838238  0.99804251    -1.84000
O1268       O  0.77887379  0.96029227  0.02909452    -0.74600
O1269       O  0.68461235  0.93860933  0.96662364    -0.74500
O1270       O  0.72247093  0.99686526  0.11369556    -0.74000
O1271       O  0.74582152  0.93696507  0.96776770    -0.74700
O1272       O  0.76985721  0.50123785  0.11765943    -0.74300
O1273       O  0.67266060  0.96161847  0.02502127    -0.74800
O1274       O  0.75006598  0.56114127  0.96974844    -0.74200
O1275       O  0.73453865  0.97429510  0.88041179    -0.75000
O1276       O  0.71582333  0.53840863  0.02962963    -0.74400
O1277       O  0.76313186  0.52515097  0.88437075    -0.74800
O1278       O  0.81112228  0.55988611  0.97114328    -0.74800
O1279       O  0.82081955  0.53649627  0.03180849    -0.74500
C1280       C  0.76500216  0.93814443  0.99906057     0.77200
C1281       C  0.66527375  0.93970407  0.99490027     0.77700
C1282       C  0.74396142  0.99700258  0.13712546     0.76700
C1283       C  0.73015439  0.56014994  0.99918271     0.77100
C1284       C  0.74674342  0.99916677  0.85713607     0.78200
C1285       C  0.82931807  0.55822665  0.00114305     0.77300
Zn1286     Zn  0.72015782  0.00025392  0.45493637     1.49700
Zn1287     Zn  0.78414583  0.49803002  0.45769127     1.49400
Zn1288     Zn  0.77237871  0.53403724  0.54459396     1.49100
Zn1289     Zn  0.73362378  0.96337923  0.53768329     1.49500
O1290       O  0.75121862  0.99920625  0.49602776    -1.84000
O1291       O  0.72916265  0.00015456  0.38120413    -0.74600
O1292       O  0.82519502  0.53551563  0.46758181    -0.74500
O1293       O  0.75606972  0.56121086  0.53366321    -0.74000
O1294       O  0.77051131  0.99752754  0.37921092    -0.74700
O1295       O  0.72152296  0.53994076  0.47415133    -0.74300
O1296       O  0.81589227  0.55817856  0.53027107    -0.74800
O1297       O  0.73702973  0.97289652  0.61183770    -0.74200
O1298       O  0.78811595  0.96395311  0.46614302    -0.75000
O1299       O  0.76731487  0.52317257  0.61801542    -0.74400
O1300       O  0.75395447  0.93963065  0.52550043    -0.74800
O1301       O  0.68993454  0.93753322  0.52261562    -0.74800
O1302       O  0.68008277  0.96332701  0.46652728    -0.74500
C1303       C  0.74932618  0.99838850  0.35655927     0.77200
C1304       C  0.83394857  0.55710603  0.49888491     0.77700
C1305       C  0.73650359  0.56138242  0.50503711     0.76700
C1306       C  0.74956421  0.99718618  0.63672704     0.77100
C1307       C  0.77482878  0.94205988  0.49672731     0.78200
C1308       C  0.67183789  0.94034304  0.49398174     0.77300
C1309       C  0.75387861  0.52258965  0.72215786    -0.26200
C1310       C  0.74828422  0.99680479  0.69310486    -0.14300
C1311       C  0.73697634  0.97031344  0.72228551     0.36300
C1312       C  0.73674102  0.97192844  0.77513569    -0.25700
C1313       C  0.74748507  0.99929499  0.80070035    -0.14900
C1314       C  0.75349652  0.52407371  0.77492677     0.37400
N1315       N  0.75295559  0.54898491  0.79722300    -0.84300
H1316       H  0.75401120  0.54032624  0.70037630     0.18500
H1317       H  0.72810615  0.95132574  0.79632420     0.18500
N1318       N  0.72581653  0.94139543  0.69997733    -0.88200
H1319       H  0.77238003  0.56152173  0.81837355     0.35900
H1320       H  0.73424544  0.54096608  0.82092804     0.41000
H1321       H  0.74267800  0.94156396  0.67798231     0.40600
H1322       H  0.70737032  0.93642426  0.67734890     0.35500
C1323       C  0.77436965  0.50430765  0.22262851    -0.26200
C1324       C  0.74427671  0.99670675  0.19328607    -0.14300
C1325       C  0.72649784  0.00447190  0.22279770     0.36300
C1326       C  0.72842214  0.00468859  0.27575853    -0.25700
C1327       C  0.74790631  0.99743842  0.30039480    -0.14900
C1328       C  0.77592768  0.50368819  0.27553576     0.37400
N1329       N  0.80269584  0.50775709  0.29860594    -0.89100
H1330       H  0.79356635  0.50769353  0.20085262     0.18500
H1331       H  0.71477514  0.01100712  0.29759936     0.18500
N1332       N  0.70693126  0.01282682  0.19940884    -0.88200
H1333       H  0.82051103  0.52838260  0.28695615     0.35900
H1334       H  0.80652312  0.49102050  0.28517030     0.41000
H1335       H  0.71323883  0.03446731  0.21123887     0.40600
H1336       H  0.68522295  0.99838713  0.21246369     0.35500
C1337       C  0.60125297  0.87256833  0.44803435    -0.26200
C1338       C  0.58516867  0.86234558  0.49344976    -0.14300
C1339       C  0.59600907  0.88017704  0.53756092     0.36300
C1340       C  0.62373165  0.90662343  0.53625512    -0.25700
C1341       C  0.64077111  0.91566484  0.49169143    -0.14900
C1342       C  0.62906530  0.89888990  0.44684854     0.37400
N1343       N  0.64586237  0.90694652  0.40060428    -0.89100
H1344       H  0.59321772  0.85891954  0.41415711     0.18500
H1345       H  0.63249606  0.91965880  0.57062271     0.18500
N1346       N  0.57941228  0.87193362  0.58403636    -0.88200
H1347       H  0.66616180  0.90783559  0.40723870     0.35900
H1348       H  0.65036822  0.92819045  0.38994147     0.41000
H1349       H  0.57691062  0.85179706  0.59685912     0.40600
H1350       H  0.55822645  0.86886635  0.57682337     0.35500
C1351       C  0.87615401  0.59843365  0.54484731    -0.26200
C1352       C  0.86536595  0.58228310  0.49949074    -0.14300
C1353       C  0.88339191  0.59272615  0.45546229     0.36300
C1354       C  0.91060364  0.62026542  0.45714949    -0.25700
C1355       C  0.91992908  0.63743751  0.50173517    -0.14900
C1356       C  0.90303056  0.62571435  0.54634600     0.37400
N1357       N  0.91279353  0.64176116  0.59325301    -0.89100
H1358       H  0.86304091  0.59040866  0.57929883     0.18500
H1359       H  0.92365436  0.62915124  0.42284670     0.18500
N1360       N  0.87325661  0.57651792  0.40860129    -0.88200
H1361       H  0.91493652  0.62803913  0.61975478     0.35900
H1362       H  0.89617636  0.64593350  0.60611303     0.41000
H1363       H  0.87327802  0.55652897  0.41301238     0.40600
H1364       H  0.88836738  0.58813851  0.37939925     0.35500
C1365       C  0.52781751  0.76526890  0.77693749    -0.26200
C1366       C  0.00050186  0.74714694  0.80118882    -0.14300
C1367       C  0.97628624  0.72523024  0.77266910     0.36300
C1368       C  0.97743722  0.72687268  0.71957835    -0.25700
C1369       C  0.00249252  0.74953854  0.69417709    -0.14900
C1370       C  0.52962050  0.76759268  0.72391240     0.37400
N1371       N  0.55729856  0.78899298  0.70024537    -0.89100
H1372       H  0.54739275  0.77988547  0.79922745     0.18500
H1373       H  0.95881507  0.70995670  0.69787443     0.18500
N1374       N  0.95088070  0.70105386  0.79757589    -0.88200
H1375       H  0.57414681  0.79992434  0.72725473     0.35900
H1376       H  0.55403341  0.80538228  0.68367465     0.41000
H1377       H  0.95827100  0.68821824  0.81614795     0.40600
H1378       H  0.93498047  0.68696723  0.77111068     0.35500
C1379       C  0.99119335  0.76428665  0.27612025    -0.26200
C1380       C  0.99878802  0.74505006  0.30077937    -0.14300
C1381       C  0.51275999  0.73323043  0.27222053     0.36300
C1382       C  0.51035402  0.73259105  0.21915674    -0.25700
C1383       C  0.99687664  0.74679293  0.19359065    -0.14900
C1384       C  0.98989198  0.76520091  0.22307089     0.37400
N1385       N  0.98121683  0.78454600  0.19932365    -0.89100
H1386       H  0.98598188  0.77864107  0.29831668     0.18500
H1387       H  0.52063247  0.72258228  0.19701199     0.18500
N1388       N  0.52882338  0.72082809  0.29642365    -0.88200
H1389       H  0.97738261  0.79694923  0.22642698     0.35900
H1390       H  0.96078403  0.77099506  0.18118797     0.41000
H1391       H  0.54778717  0.73846167  0.31337135     0.40600
H1392       H  0.53654011  0.71142557  0.26966878     0.35500
C1393       C  0.62601812  0.89502898  0.95043105    -0.26200
C1394       C  0.63410962  0.91389084  0.99285704    -0.14300
C1395       C  0.61372589  0.90555114  0.03378998     0.36300
C1396       C  0.58738314  0.87716915  0.03337047    -0.25700
C1397       C  0.58092387  0.85727685  0.99267568    -0.14900
C1398       C  0.59987150  0.86712890  0.94984365     0.37400
N1399       N  0.59300871  0.84867303  0.90567032    -0.89100
H1400       H  0.64070803  0.90143309  0.91779681     0.18500
H1401       H  0.57259114  0.87008417  0.06588714     0.18500
N1402       N  0.62038740  0.92508395  0.07656644    -0.88200
H1403       H  0.61068893  0.84486826  0.89912839     0.35900
H1404       H  0.59161064  0.86042229  0.87472286     0.41000
H1405       H  0.61984114  0.94388137  0.06402696     0.40600
H1406       H  0.60367877  0.91504107  0.10411867     0.35500
C1407       C  0.87311775  0.59596522  0.95327443    -0.26200
C1408       C  0.86064342  0.58293326  0.00023587    -0.14300
C1409       C  0.87669369  0.59653218  0.04507502     0.36300
C1410       C  0.90364970  0.62377680  0.04211187    -0.25700
C1411       C  0.91470797  0.63806145  0.99536917    -0.14900
C1412       C  0.89980215  0.62330964  0.95031927     0.37400
N1413       N  0.91111519  0.63546611  0.90111713    -0.89100
H1414       H  0.86130022  0.58544406  0.91855593     0.18500
H1415       H  0.91498704  0.63477957  0.07688752     0.18500
N1416       N  0.86527815  0.58436328  0.09418151    -0.88200
H1417       H  0.93317449  0.64014038  0.89836664     0.35900
H1418       H  0.91073859  0.65523494  0.89656536     0.41000
H1419       H  0.86279835  0.56313018  0.09627944     0.40600
H1420       H  0.84433893  0.58240490  0.09871733     0.35500
C1421       C  0.79271880  0.88156065  0.45984838    -0.26200
C1422       C  0.78486007  0.86476878  0.50485589    -0.14300
C1423       C  0.77935246  0.87676892  0.54891056     0.36300
C1424       C  0.77801659  0.90302737  0.54554672    -0.25700
C1425       C  0.78284318  0.91828252  0.49949723    -0.14900
C1426       C  0.79206586  0.90841897  0.45680192     0.37400
N1427       N  0.79884325  0.92447894  0.40979285    -0.89100
H1428       H  0.79766095  0.87285765  0.42619394     0.18500
H1429       H  0.77217848  0.91114181  0.57898406     0.18500
N1430       N  0.77425118  0.86174912  0.59676233    -0.88200
H1431       H  0.80380471  0.91345288  0.38164042     0.35900
H1432       H  0.81837394  0.94507400  0.41529536     0.41000
H1433       H  0.77022368  0.87329407  0.62527974     0.40600
H1434       H  0.79395718  0.86217018  0.60659608     0.35500
C1435       C  0.74020722  0.63300147  0.54928307    -0.26200
C1436       C  0.73145274  0.64213177  0.50578335    -0.14300
C1437       C  0.72131080  0.62283297  0.46321091     0.36300
C1438       C  0.72183751  0.59586350  0.46440716    -0.25700
C1439       C  0.73221327  0.58770470  0.50715267    -0.14900
C1440       C  0.74060581  0.60624328  0.55045316     0.37400
N1441       N  0.74978498  0.59815104  0.59593000    -0.89100
H1442       H  0.74748226  0.64709369  0.58270381     0.18500
H1443       H  0.71521807  0.58175188  0.43105482     0.18500
N1444       N  0.71200485  0.63124657  0.41806555    -0.88200
H1445       H  0.73563546  0.59687570  0.62531116     0.35900
H1446       H  0.77146509  0.61519451  0.60466819     0.41000
H1447       H  0.69201387  0.63064889  0.42643867     0.40600
H1448       H  0.70699402  0.61548335  0.38937876     0.35500
C1449       C  0.59768681  0.71556046  0.46397213    -0.26200
C1450       C  0.59053675  0.72876088  0.50406430    -0.14300
C1451       C  0.60973738  0.73941575  0.54651366     0.36300
C1452       C  0.63631686  0.73875659  0.54650896    -0.25700
C1453       C  0.64463193  0.72749360  0.50517608    -0.14900
C1454       C  0.62449457  0.71467583  0.46412451     0.37400
N1455       N  0.63185596  0.70218126  0.42172827    -0.89100
H1456       H  0.58293202  0.70695678  0.43155709     0.18500
H1457       H  0.65097053  0.74791146  0.57899994     0.18500
N1458       N  0.60257024  0.75126952  0.58990559    -0.88200
H1459       H  0.61543656  0.69517571  0.39373196     0.35900
H1460       H  0.63143880  0.68292656  0.43445998     0.41000
H1461       H  0.61986930  0.77329357  0.59536991     0.40600
H1462       H  0.60168758  0.73882317  0.62160475     0.35500
C1463       C  0.87912672  0.77910762  0.45361496    -0.26200
C1464       C  0.86596204  0.77829895  0.50062809    -0.14300
C1465       C  0.88106952  0.77874972  0.54555227     0.36300
C1466       C  0.90739106  0.77770398  0.54249253    -0.25700
C1467       C  0.91932960  0.77621061  0.49563443    -0.14900
C1468       C  0.90549811  0.77789738  0.45063692     0.37400
N1469       N  0.91657160  0.77651895  0.40154703    -0.89100
H1470       H  0.86789466  0.77880169  0.41888020     0.18500
H1471       H  0.91811713  0.77705223  0.57725533     0.18500
N1472       N  0.87036052  0.78033153  0.59489603    -0.88200
H1473       H  0.91742215  0.75685185  0.39904250     0.35900
H1474       H  0.93818254  0.79478425  0.39756014     0.41000
H1475       H  0.85019290  0.76072337  0.60204668     0.40600
H1476       H  0.86693123  0.79851919  0.59585915     0.35500
C1477       C  0.72466193  0.73963471  0.78066856    -0.26200
C1478       C  0.75112790  0.74946323  0.80839460    -0.14300
C1479       C  0.77823590  0.75893222  0.78180163     0.36300
C1480       C  0.77836020  0.75891157  0.72882261    -0.25700
C1481       C  0.75216062  0.75020695  0.70128787    -0.14900
C1482       C  0.72492311  0.74005811  0.72734526     0.37400
N1483       N  0.69762848  0.72980401  0.69956062    -0.89100
H1484       H  0.70376484  0.73195660  0.80069630     0.18500
H1485       H  0.79926373  0.76630287  0.70895498     0.18500
N1486       N  0.80585165  0.76789882  0.80734032    -0.88200
H1487       H  0.67958404  0.72305163  0.72435694     0.35900
H1488       H  0.69353984  0.71080849  0.67917826     0.41000
H1489       H  0.80280081  0.75076293  0.83179539     0.40600
H1490       H  0.81189662  0.78719764  0.82837042     0.35500
C1491       C  0.72278309  0.74044841  0.22985110    -0.26200
C1492       C  0.74901500  0.74894817  0.20214895    -0.14300
C1493       C  0.77616020  0.75872744  0.22833416     0.36300
C1494       C  0.77655120  0.75980432  0.28118814    -0.25700
C1495       C  0.75027788  0.75061509  0.30903229    -0.14900
C1496       C  0.72305530  0.74092115  0.28316820     0.37400
N1497       N  0.69596981  0.73203742  0.31102029    -0.89100
H1498       H  0.70200663  0.73316730  0.20980883     0.18500
H1499       H  0.79753673  0.76736121  0.30071669     0.18500
N1500       N  0.80385374  0.76848068  0.20230323    -0.88200
H1501       H  0.67795762  0.72536707  0.28632560     0.35900
H1502       H  0.69862806  0.75083866  0.33033827     0.41000
H1503       H  0.80743619  0.78549161  0.17711212     0.40600
H1504       H  0.80239407  0.75053919  0.18186646     0.35500
C1505       C  0.77033364  0.87219725  0.04816764    -0.26200
C1506       C  0.77144871  0.85853761  0.00283660    -0.14300
C1507       C  0.77331828  0.87279535  0.95630896     0.36300
C1508       C  0.77210054  0.89930750  0.95611045    -0.25700
C1509       C  0.77005195  0.91244572  0.00138730    -0.14900
C1510       C  0.76983489  0.89906986  0.04800085     0.37400
N1511       N  0.76762624  0.91197790  0.09489002    -0.89100
H1512       H  0.76889951  0.86131426  0.08389375     0.18500
H1513       H  0.77224786  0.90955843  0.92033157     0.18500
N1514       N  0.77460849  0.85944337  0.90930610    -0.88200
H1515       H  0.76793711  0.89953183  0.12569934     0.35900
H1516       H  0.74680099  0.91056223  0.09558683     0.41000
H1517       H  0.79538452  0.86078860  0.90766136     0.40600
H1518       H  0.77404356  0.87180012  0.87857955     0.35500
C1519       C  0.73250941  0.60308264  0.95399834    -0.26200
C1520       C  0.72473684  0.58557790  0.99810355    -0.14300
C1521       C  0.71538167  0.59473920  0.04142006     0.36300
C1522       C  0.71596914  0.62210663  0.04049296    -0.25700
C1523       C  0.72505312  0.64012640  0.99709419    -0.14900
C1524       C  0.73312933  0.63031158  0.95293623     0.37400
N1525       N  0.74354343  0.64779538  0.90727560    -0.89100
H1526       H  0.73948574  0.59619456  0.92035883     0.18500
H1527       H  0.71003533  0.62985604  0.07428716     0.18500
N1528       N  0.70692430  0.57721928  0.08699266    -0.88200
H1529       H  0.76564756  0.65316823  0.90128445     0.35900
H1530       H  0.74406137  0.66805012  0.91031817     0.41000
H1531       H  0.68670875  0.55757424  0.07978688     0.40600
H1532       H  0.70257182  0.58815172  0.11616602     0.35500
C1533       C  0.59572506  0.71987633  0.95698361    -0.26200
C1534       C  0.58142940  0.71888468  0.00284140    -0.14300
C1535       C  0.59373774  0.71599039  0.04872169     0.36300
C1536       C  0.62100653  0.71652784  0.04798349    -0.25700
C1537       C  0.63611200  0.71919851  0.00230412    -0.14900
C1538       C  0.62273318  0.71969853  0.95612173     0.37400
N1539       N  0.63765147  0.72228648  0.90881292    -0.89100
H1540       H  0.58626605  0.72184601  0.92167019     0.18500
H1541       H  0.63105784  0.71597435  0.08359148     0.18500
N1542       N  0.58011883  0.71434806  0.09678903    -0.88200
H1543       H  0.62571462  0.72427796  0.87871226     0.35900
H1544       H  0.63744573  0.70228149  0.90291275     0.41000
H1545       H  0.55883951  0.69526499  0.09720096     0.40600
H1546       H  0.57801069  0.73321023  0.10113740     0.35500
C1547       C  0.89854000  0.77239219  0.95594468    -0.26200
C1548       C  0.91437511  0.77553261  0.00088977    -0.14300
C1549       C  0.90355066  0.78064061  0.04686203     0.36300
C1550       C  0.87612566  0.78021111  0.04718771    -0.25700
C1551       C  0.85988623  0.77601757  0.00240068    -0.14900
C1552       C  0.87168370  0.77292499  0.95608667     0.37400
N1553       N  0.85527718  0.76814928  0.90983760    -0.89100
H1554       H  0.90676493  0.76865051  0.92054756     0.18500
H1555       H  0.86698432  0.78248076  0.08275960     0.18500
N1556       N  0.91936176  0.78442636  0.09346048    -0.88200
H1557       H  0.86611558  0.76450839  0.87961205     0.35900
H1558       H  0.85540638  0.78788362  0.90157924     0.41000
H1559       H  0.93938402  0.80489879  0.09141932     0.40600
H1560       H  0.90749112  0.78616561  0.12404318     0.35500
loop_ 
_geom_bond_atom_site_label_1 
_geom_bond_atom_site_label_2 
_geom_bond_distance 
_geom_bond_site_symmetry_2 
_ccdc_geom_bond_type 
Zn1           O5   1.957       .  S
Zn1           O6   2.023       .  S
Zn1          O10   2.011       .  S
Zn1          O17   2.010       .  S
Zn2           O5   1.972   1_556  S
Zn2           O7   2.027       .  S
Zn2           O9   2.041       .  S
Zn2          O13   2.043       .  S
Zn3           O5   1.969   1_556  S
Zn3           O8   2.021       .  S
Zn3          O11   2.016       .  S
Zn3          O14   2.024       .  S
Zn4           O5   1.959       .  S
Zn4          O12   2.019       .  S
Zn4          O15   2.012       .  S
Zn4          O16   2.015       .  S
O6           C18   1.273       .  A
O7           C19   1.274       .  A
O8           C20   1.274   1_556  A
O9           C18   1.275   1_556  A
O10          C20   1.273       .  A
O11          C19   1.272       .  A
O12          C21   1.273       .  A
O13          C22   1.277   1_556  A
O14          C21   1.273   1_556  A
O15          C22   1.275       .  A
O16          C23   1.272       .  A
O17          C23   1.272       .  A
C18         C381   1.486       .  S
C19         C308   1.473       .  S
C20         C353   1.471       .  S
C21         C367   1.476       .  S
C22         C336   1.492       .  S
C23         C322   1.476       .  S
Zn24         O28   1.947       .  S
Zn24         O29   2.011       .  S
Zn24         O33   2.034       .  S
Zn24         O40   2.008       .  S
Zn25         O28   1.980       .  S
Zn25         O30   2.034       .  S
Zn25         O32   2.040       .  S
Zn25         O36   1.998       .  S
Zn26         O28   1.932       .  S
Zn26         O31   2.010       .  S
Zn26         O34   1.987       .  S
Zn26         O37   1.991       .  S
Zn27         O28   1.987       .  S
Zn27         O35   2.064       .  S
Zn27         O38   2.025       .  S
Zn27         O39   2.048       .  S
O29          C41   1.274       .  A
O30          C42   1.273       .  A
O31          C43   1.272       .  A
O32          C41   1.275       .  A
O33          C43   1.275       .  A
O34          C42   1.272       .  A
O35          C44   1.278       .  A
O36          C45   1.272       .  A
O37          C44   1.271       .  A
O38          C45   1.276       .  A
O39          C46   1.277       .  A
O40          C46   1.273       .  A
C41         C266   1.491       .  S
C42         C283   1.489       .  S
C43         C311   1.492       .  S
C44         C252   1.494       .  S
C45         C325   1.473       .  S
C46         C294   1.491       .  S
Zn47         O51   1.945   1_455  S
Zn47         O52   2.003       .  S
Zn47         O56   2.006       .  S
Zn47         O63   1.998       .  S
Zn48        O831   1.978   1_554  S
Zn48         O53   2.012       .  S
Zn48         O59   2.050       .  S
Zn48        O835   2.051       .  S
Zn49         O51   1.969   1_554  S
Zn49         O54   2.037   1_655  S
Zn49         O57   2.011       .  S
Zn49        O840   2.030       .  S
Zn50        O831   1.947       .  S
Zn50         O58   2.013       .  S
Zn50         O61   1.994       .  S
Zn50         O62   2.008       .  S
O51        Zn828   1.975   1_556  S
O51        Zn830   1.948       .  S
O52          C64   1.272       .  A
O53         C845   1.274       .  A
O54          C66   1.275   1_554  A
O55        Zn828   2.033   1_455  S
O55          C64   1.275   1_554  A
O56          C66   1.273       .  A
O57          C65   1.274       .  A
O58          C67   1.273       .  A
O59          C68   1.277   1_554  A
O60        Zn829   2.054       .  S
O60          C67   1.277   1_554  A
O61          C68   1.271       .  A
O62         C849   1.272       .  A
O63          C69   1.271   1_455  A
C64         C364   1.482       .  S
C65         O833   1.274       .  A
C65         C993   1.480       .  S
C66         C227   1.484       .  S
C67         C378   1.491   1_556  S
C68         C241   1.487       .  S
C69         O842   1.273       .  A
C69         C976   1.486       .  S
Zn70         O74   1.934       .  S
Zn70         O75   1.980       .  S
Zn70         O79   1.999       .  S
Zn70         O86   1.982       .  S
Zn71        O854   1.977       .  S
Zn71         O76   2.073       .  S
Zn71         O82   2.017       .  S
Zn71        O858   2.051   1_455  S
Zn72        O854   1.927       .  S
Zn72         O77   2.008       .  S
Zn72         O80   1.989       .  S
Zn72         O83   1.970       .  S
Zn73         O74   1.986       .  S
Zn73         O84   2.026       .  S
Zn73         O85   2.054       .  S
Zn73        O861   2.057       .  S
O74        Zn851   1.980       .  S
O74        Zn852   1.934       .  S
O75          C87   1.271       .  A
O76          C88   1.279       .  A
O77         C869   1.270   1_455  A
O78        Zn851   2.059       .  S
O78          C87   1.277       .  A
O79          C89   1.270       .  A
O80          C88   1.271       .  A
O81        Zn853   2.057       .  S
O81          C90   1.277       .  A
O82         C871   1.276       .  A
O83          C90   1.269       .  A
O84          C91   1.276       .  A
O85          C92   1.277       .  A
O86          C92   1.270       .  A
C87         C297   1.488       .  S
C88         C168   1.491       .  S
C89         O857   1.270       .  A
C89         C199   1.485       .  S
C90         C280   1.489       .  S
C91         O862   1.276       .  A
C91         C210   1.485       .  S
C92         C185   1.484       .  S
Zn93        O487   1.970   1_554  S
Zn93        O102   2.002       .  S
Zn93        O109   2.053       .  S
Zn93        O488   2.053   1_545  S
Zn94         O97   1.951   1_556  S
Zn94         O99   2.004       .  S
Zn94        O101   2.019       .  S
Zn94        O105   2.015       .  S
Zn95         O97   1.976       .  S
Zn95        O100   2.022       .  S
Zn95        O103   2.036       .  S
Zn95        O496   2.044       .  S
Zn96        O487   1.942       .  S
Zn96        O104   1.999       .  S
Zn96        O107   2.007       .  S
Zn96        O108   1.996       .  S
O97        Zn483   1.969       .  S
O97        Zn486   1.941   1_554  S
O98        Zn483   2.032       .  S
O98         C110   1.274       .  A
O99         C111   1.274   1_556  A
O100        C112   1.275       .  A
O101        C110   1.273   1_556  A
O102        C502   1.274       .  A
O103        C111   1.276       .  A
O104        C113   1.272       .  A
O105        C114   1.273       .  A
O106       Zn485   2.040   1_545  S
O106        C113   1.274   1_554  A
O107        C504   1.270       .  A
O108        C115   1.273   1_556  A
O109        C115   1.277       .  A
C110        C339   1.476       .  S
C111        C224   1.484   1_554  S
C112        O492   1.274       .  A
C112        C154   1.483       .  S
C113        C350   1.490       .  S
C114        O497   1.269       .  A
C114        C143   1.480       .  S
C115        C238   1.486       .  S
Zn116       O120   1.981       .  S
Zn116       O121   2.013       .  S
Zn116       O132   2.058       .  S
Zn116       O515   2.050       .  S
Zn117       O510   1.974   1_545  S
Zn117       O122   2.035       .  S
Zn117       O514   2.013   1_545  S
Zn117       O518   2.049   1_545  S
Zn118       O510   1.937   1_545  S
Zn118       O123   1.993       .  S
Zn118       O126   1.996       .  S
Zn118       O129   1.999       .  S
Zn119       O120   1.939       .  S
Zn119       O127   2.009       .  S
Zn119       O130   1.995       .  S
Zn119       O131   2.006       .  S
O120       Zn507   1.981       .  S
O120       Zn508   1.943       .  S
O121        C133   1.275       .  A
O122        C134   1.275       .  A
O123        C135   1.271       .  A
O124       Zn507   2.015       .  S
O124        C133   1.275       .  A
O125       Zn506   2.052       .  S
O125        C135   1.276       .  A
O126        C134   1.273       .  A
O127        C136   1.270       .  A
O128       Zn507   2.058       .  S
O128        C137   1.277       .  A
O129        C526   1.271   1_545  A
O130        C137   1.273       .  A
O131        C138   1.273       .  A
O132        C138   1.277       .  A
C133        C157   1.485       .  S
C134        C182   1.485       .  S
C135        C269   1.488       .  S
C136        O519   1.273       .  A
C136        C140   1.485       .  S
C137        C255   1.493       .  S
C138        C171   1.491       .  S
C139        C144   1.397       .  A
C139        C530   1.407   1_545  A
C139        H146   1.084       .  S
C140        C141   1.419       .  A
C140        C529   1.405       .  A
C141        C142   1.398       .  A
C141        N148   1.433       .  S
C142        C143   1.403       .  A
C142        H147   1.084       .  S
C143        C534   1.417       .  A
C144        C533   1.419       .  A
C144        N145   1.433       .  S
N145        H149   1.045       .  S
N145        H150   1.046       .  S
N148        H151   1.044       .  S
N148        H152   1.046       .  S
C153        C158   1.400       .  A
C153        C544   1.406       .  A
C153        H160   1.083       .  S
C154        C155   1.413       .  A
C154        C543   1.404       .  A
C155        C156   1.406       .  A
C155        N162   1.438       .  S
C156        C157   1.407       .  A
C156        H161   1.083       .  S
C157        C548   1.414       .  A
C158        C547   1.413       .  A
C158        N159   1.433       .  S
N159        H163   1.046       .  S
N159        H164   1.046   1_545  S
N162        H165   1.046       .  S
N162        H166   1.046       .  S
C167        C168   1.407       .  A
C167        C172   1.410       .  A
C167        H174   1.084       .  S
C168        C169   1.413       .  A
C169        C170   1.401       .  A
C169        N176   1.433       .  S
C170        C171   1.403       .  A
C170        H175   1.084       .  S
C171        C172   1.419       .  A
C172        N173   1.432       .  S
N173        H177   1.045       .  S
N173        H178   1.045       .  S
N176        H179   1.046       .  S
N176        H180   1.046       .  S
C181        C182   1.403       .  A
C181        C186   1.398       .  A
C181        H188   1.084       .  S
C182        C183   1.416       .  A
C183        C184   1.412       .  A
C183        N190   1.437       .  S
C184        C185   1.405       .  A
C184        H189   1.083       .  S
C185        C186   1.411       .  A
C186        N187   1.434       .  S
N187        H191   1.046       .  S
N187        H192   1.046       .  S
N190        H193   1.045       .  S
N190        H194   1.046       .  S
C195        C200   1.401       .  A
C195        C976   1.406   1_455  A
C195        H202   1.084       .  S
C196        C849   1.486       .  S
C196        C197   1.413       .  A
C196        C975   1.406       .  A
C197        C198   1.401       .  A
C197        N204   1.433       .  S
C198        C199   1.405       .  A
C198        H203   1.084       .  S
C199        C980   1.413       .  A
C200        C979   1.413   1_455  A
C200        N201   1.433       .  S
N201        H205   1.046       .  S
N201        H206   1.046       .  S
N204        H207   1.046       .  S
N204        H208   1.046       .  S
C209        C210   1.406       .  A
C209        C214   1.401       .  A
C209        H216   1.084       .  S
C210        C991   1.412       .  A
C211        C212   1.406       .  A
C211        C990   1.416       .  A
C211        N218   1.438       .  S
C212        C993   1.405   1_455  A
C212        H217   1.084       .  S
C213        C845   1.484       .  S
C213        C214   1.412       .  A
C213        C992   1.406       .  A
C214        N215   1.433       .  S
N215        H219   1.046       .  S
N215        H220   1.046       .  S
N218        H221   1.045       .  S
N218        H222   1.046       .  S
C223        C224   1.404       .  A
C223        C228   1.400       .  A
C223        H230   1.084       .  S
C224        C225   1.415   1_556  A
C225        C226   1.411       .  A
C225        N232   1.437       .  S
C226        C227   1.405   1_554  A
C226        H231   1.083       .  S
C227        C228   1.410       .  A
C228        N229   1.433       .  S
N229        H233   1.045       .  S
N229        H234   1.046       .  S
N232        H235   1.046       .  S
N232        H236   1.045       .  S
C237        C238   1.403   1_556  A
C237        C242   1.395       .  A
C237        H244   1.084       .  S
C238        C239   1.416       .  A
C239        C240   1.406       .  A
C239        N246   1.432       .  S
C240        C241   1.408   1_554  A
C240        H245   1.084       .  S
C241        C242   1.418       .  A
C242        N243   1.434       .  S
N243        H247   1.045       .  S
N243        H248   1.044       .  S
N246        H249   1.045       .  S
N246        H250   1.046       .  S
C251        C252   1.409       .  A
C251        C256   1.416       .  A
C251        H258   1.083       .  S
C252        C253   1.413       .  A
C253        C254   1.397       .  A
C253        N260   1.434       .  S
C254        C255   1.404       .  A
C254        H259   1.084       .  S
C255        C256   1.417       .  A
C256        N257   1.437       .  S
N257        H261   1.045       .  S
N257        H262   1.046       .  S
N260        H263   1.046       .  S
N260        H264   1.045       .  S
C265        C266   1.404       .  A
C265        C270   1.399       .  A
C265        H272   1.084       .  S
C266        C267   1.417       .  A
C267        C268   1.414       .  A
C267        N274   1.437       .  S
C268        C269   1.406       .  A
C268        H273   1.083       .  S
C269        C270   1.411       .  A
C270        N271   1.433       .  S
N271        H275   1.046       .  S
N271        H276   1.045       .  S
N274        H277   1.046       .  S
N274        H278   1.045       .  S
C279        C280   1.408       .  A
C279        C284   1.415       .  A
C279        H286   1.083       .  S
C280        C281   1.414       .  A
C281        C282   1.393       .  A
C281        N288   1.434       .  S
C282        C283   1.402       .  A
C282        H287   1.084       .  S
C283        C284   1.418       .  A
C284        N285   1.437       .  S
N285        H289   1.045       .  S
N285        H290   1.046       .  S
N288        H291   1.046       .  S
N288        H292   1.045       .  S
C293        C294   1.410       .  A
C293        C298   1.407       .  A
C293        H300   1.084       .  S
C294        C295   1.418       .  A
C295        C296   1.394       .  A
C295        N302   1.433       .  S
C296        C297   1.404       .  A
C296        H301   1.084       .  S
C297        C298   1.416       .  A
C298        N299   1.432       .  S
N299        H303   1.047       .  S
N299        H304   1.044       .  S
N302        H305   1.043       .  S
N302        H306   1.046       .  S
C307        C308   1.399       .  A
C307        C312   1.408       .  A
C307        H314   1.084       .  S
C308        C309   1.410       .  A
C309        C310   1.401       .  A
C309        N316   1.433       .  S
C310        C311   1.408       .  A
C310        H315   1.084       .  S
C311        C312   1.420       .  A
C312        N313   1.438       .  S
N313        H317   1.046       .  S
N313        H318   1.045       .  S
N316        H319   1.046       .  S
N316        H320   1.045       .  S
C321        C322   1.403       .  A
C321        C326   1.406       .  A
C321        H328   1.084       .  S
C322        C323   1.415       .  A
C323        C324   1.397       .  A
C323        N330   1.433       .  S
C324        C325   1.400       .  A
C324        H329   1.084       .  S
C325        C326   1.413       .  A
C326        N327   1.439       .  S
N327        H331   1.046       .  S
N327        H332   1.045       .  S
N330        H333   1.045       .  S
N330        H334   1.045       .  S
C335        C336   1.409       .  A
C335        C340   1.406       .  A
C335        H342   1.084       .  S
C336        C337   1.417   1_554  A
C337        C338   1.409       .  A
C337        N344   1.437       .  S
C338        C339   1.401   1_556  A
C338        H343   1.084       .  S
C339        C340   1.408       .  A
C340        N341   1.438       .  S
N341        H345   1.046       .  S
N341        H346   1.046       .  S
N344        H347   1.046       .  S
N344        H348   1.046       .  S
C349        C350   1.406       .  A
C349        C354   1.397       .  A
C349        H356   1.084       .  S
C350        C351   1.416   1_556  A
C351        C352   1.410       .  A
C351        N358   1.437       .  S
C352        C353   1.403       .  A
C352        H357   1.084       .  S
C353        C354   1.415   1_554  A
C354        N355   1.441       .  S
N355        H359   1.045       .  S
N355        H360   1.042       .  S
N358        H361   1.046       .  S
N358        H362   1.046       .  S
C363        C364   1.405   1_554  A
C363        C368   1.408       .  A
C363        H370   1.084       .  S
C364        C365   1.412       .  A
C365        C366   1.402       .  A
C365        N372   1.433       .  S
C366        C367   1.401   1_556  A
C366        H371   1.084       .  S
C367        C368   1.410       .  A
C368        N369   1.437       .  S
N369        H373   1.046       .  S
N369        H374   1.046       .  S
N372        H375   1.045       .  S
N372        H376   1.046       .  S
C377        C378   1.407   1_556  A
C377        C382   1.409       .  A
C377        H384   1.084       .  S
C378        C379   1.415       .  A
C379        C380   1.411       .  A
C379        N386   1.438       .  S
C380        C381   1.405       .  A
C380        H385   1.084       .  S
C381        C382   1.412   1_554  A
C382        N383   1.438       .  S
N383        H387   1.046       .  S
N383        H388   1.045       .  S
N386        H389   1.045       .  S
N386        H390   1.045       .  S
Zn391       O395   1.956       .  S
Zn391       O396   2.013       .  S
Zn391       O400   2.009       .  S
Zn391       O407   2.013       .  S
Zn392       O395   1.973   1_556  S
Zn392       O397   2.010       .  S
Zn392       O399   2.051       .  S
Zn392       O403   2.052       .  S
Zn393       O395   1.982   1_556  S
Zn393       O398   2.045       .  S
Zn393       O401   2.033       .  S
Zn393       O404   2.046       .  S
Zn394       O395   1.957       .  S
Zn394       O402   2.007       .  S
Zn394       O405   2.020       .  S
Zn394       O406   2.014       .  S
O396        C408   1.272   1_554  A
O397        C409   1.273       .  A
O398        C410   1.277       .  A
O399        C408   1.276       .  A
O400        C410   1.272   1_554  A
O401        C409   1.276       .  A
O402        C411   1.273       .  A
O403        C412   1.278   1_556  A
O404        C411   1.276   1_556  A
O405        C412   1.274       .  A
O406        C413   1.273       .  A
O407        C413   1.272       .  A
C408        C771   1.480       .  S
C409        C698   1.484       .  S
C410        C743   1.480       .  S
C411        C757   1.489       .  S
C412        C726   1.493       .  S
C413        C712   1.478       .  S
Zn414       O418   1.941       .  S
Zn414       O419   1.991       .  S
Zn414       O423   2.015       .  S
Zn414       O430   1.983       .  S
Zn415       O418   1.982       .  S
Zn415       O420   2.052       .  S
Zn415       O422   2.047       .  S
Zn415       O426   2.009       .  S
Zn416       O418   1.927       .  S
Zn416       O421   2.014       .  S
Zn416       O424   1.970       .  S
Zn416       O427   1.979       .  S
Zn417       O418   1.985       .  S
Zn417       O425   2.072       .  S
Zn417       O428   2.036       .  S
Zn417       O429   2.052       .  S
O419        C431   1.272       .  A
O420        C432   1.275       .  A
O421        C433   1.270       .  A
O422        C431   1.276       .  A
O423        C433   1.271       .  A
O424        C432   1.270       .  A
O425        C434   1.279       .  A
O426        C435   1.274       .  A
O427        C434   1.270       .  A
O428        C435   1.277       .  A
O429        C436   1.277       .  A
O430        C436   1.269       .  A
C431        C656   1.490       .  S
C432        C673   1.490       .  S
C433        C701   1.475       .  S
C434        C642   1.495       .  S
C435        C715   1.478       .  S
C436        C684   1.480       .  S
Zn437       O441   1.945   1_455  S
Zn437       O442   2.008       .  S
Zn437       O446   1.986       .  S
Zn437       O453   2.000       .  S
Zn438      O1221   1.972   1_554  S
Zn438       O443   2.012       .  S
Zn438      O1225   2.040       .  S
Zn438       O449   2.026       .  S
Zn439       O441   1.975   1_554  S
Zn439       O444   2.050   1_655  S
Zn439       O447   2.028       .  S
Zn439      O1230   2.053       .  S
Zn440      O1221   1.950       .  S
Zn440       O448   2.021       .  S
Zn440       O451   1.999       .  S
Zn440       O452   2.004       .  S
O441      Zn1218   1.968   1_556  S
O441      Zn1220   1.949       .  S
O442        C454   1.271   1_556  A
O443       C1235   1.275       .  A
O444        C456   1.278   1_554  A
O445      Zn1218   2.034   1_455  S
O445        C454   1.273       .  A
O446        C456   1.271       .  A
O447        C455   1.276       .  A
O448        C457   1.274       .  A
O449        C458   1.275   1_554  A
O450      Zn1219   2.048       .  S
O450        C457   1.276   1_554  A
O451        C458   1.272       .  A
O452       C1239   1.271       .  A
O453        C459   1.271   1_455  A
C454        C754   1.479       .  S
C455       O1223   1.272       .  A
C455       C1383   1.485       .  S
C456        C617   1.486       .  S
C457        C768   1.496       .  S
C458        C631   1.479       .  S
C459       O1232   1.272       .  A
C459       C1366   1.480   1_655  S
Zn460       O464   1.943       .  S
Zn460       O465   2.010       .  S
Zn460       O469   2.006       .  S
Zn460       O476   1.993       .  S
Zn461      O1244   1.967       .  S
Zn461       O466   2.036       .  S
Zn461      O1248   2.029   1_455  S
Zn461       O472   1.998       .  S
Zn462      O1244   1.928       .  S
Zn462       O467   2.001       .  S
Zn462       O470   1.975       .  S
Zn462       O473   1.967       .  S
Zn463       O464   1.982       .  S
Zn463      O1251   2.066       .  S
Zn463       O474   2.030       .  S
Zn463       O475   2.051       .  S
O464      Zn1241   1.966       .  S
O464      Zn1242   1.940       .  S
O465        C477   1.273       .  A
O466        C478   1.274       .  A
O467       C1259   1.270       .  A
O468      Zn1241   2.024       .  S
O468        C477   1.273       .  A
O469        C479   1.272       .  A
O470        C478   1.268       .  A
O471      Zn1243   2.063       .  S
O471        C480   1.277       .  A
O472       C1261   1.273       .  A
O473        C480   1.268       .  A
O474        C481   1.276       .  A
O475        C482   1.277       .  A
O476        C482   1.272       .  A
C477        C687   1.480       .  S
C478        C558   1.475       .  S
C479       O1247   1.269       .  A
C479        C589   1.485       .  S
C480        C670   1.492       .  S
C481       O1252   1.274       .  A
C481        C600   1.485       .  S
C482        C575   1.483       .  S
Zn483       O492   2.005       .  S
Zn483       O499   2.035       .  S
Zn484       O487   1.945   1_565  S
Zn484       O489   1.998       .  S
Zn484       O491   2.013       .  S
Zn484       O495   1.999       .  S
Zn485       O487   1.977   1_564  S
Zn485       O490   2.018       .  S
Zn485       O493   2.031       .  S
Zn486       O494   2.003       .  S
Zn486       O497   1.998       .  S
Zn486       O498   1.986       .  S
O488        C500   1.277       .  A
O489        C501   1.273       .  A
O490        C502   1.274   1_565  A
O491        C500   1.272   1_556  A
O493        C501   1.274   1_554  A
O494        C503   1.272   1_556  A
O495        C504   1.272   1_565  A
O496        C503   1.275       .  A
O498        C505   1.271   1_556  A
O499        C505   1.275       .  A
C500        C729   1.483       .  S
C501        C614   1.488       .  S
C502        C544   1.487       .  S
C503        C740   1.487       .  S
C504        C533   1.489       .  S
C505        C628   1.479   1_554  S
Zn506       O510   1.974   1_545  S
Zn506       O511   2.006       .  S
Zn506       O522   2.027   1_545  S
Zn507       O512   2.053       .  S
Zn508       O513   1.991       .  S
Zn508       O516   1.995       .  S
Zn508       O519   2.012       .  S
Zn509       O510   1.938       .  S
Zn509       O517   2.006       .  S
Zn509       O520   2.000       .  S
Zn509       O521   1.997       .  S
O511        C523   1.274       .  A
O512        C524   1.276       .  A
O513        C525   1.271       .  A
O514        C523   1.275   1_565  A
O515        C525   1.277       .  A
O516        C524   1.272       .  A
O517        C526   1.270       .  A
O518        C527   1.275       .  A
O520        C527   1.273       .  A
O521        C528   1.272       .  A
O522        C528   1.273       .  A
C523        C547   1.487       .  S
C524        C572   1.490       .  S
C525        C659   1.490       .  S
C526        C530   1.488       .  S
C527        C645   1.494       .  S
C528        C561   1.473       .  S
C529        C534   1.398       .  A
C529        H536   1.084       .  S
C530        C531   1.418       .  A
C531        C532   1.396       .  A
C531        N538   1.433       .  S
C532        C533   1.407   1_565  A
C532        H537   1.084       .  S
C534        N535   1.433       .  S
N535        H539   1.045       .  S
N535        H540   1.046       .  S
N538        H541   1.046       .  S
N538        H542   1.045       .  S
C543        C548   1.403       .  A
C543        H550   1.084       .  S
C544        C545   1.413       .  A
C545        C546   1.402       .  A
C545        N552   1.433   1_545  S
C546        C547   1.407       .  A
C546        H551   1.084   1_545  S
C548        N549   1.439       .  S
N549        H553   1.046       .  S
N549        H554   1.046       .  S
N552        H555   1.046   1_565  S
N552        H556   1.046       .  S
C557        C558   1.404       .  A
C557        C562   1.402       .  A
C557        H564   1.084       .  S
C558        C559   1.416       .  A
C559        C560   1.394       .  A
C559        N566   1.434       .  S
C560        C561   1.400       .  A
C560        H565   1.084       .  S
C561        C562   1.414       .  A
C562        N563   1.433       .  S
N563        H567   1.046       .  S
N563        H568   1.045       .  S
N566        H569   1.044       .  S
N566        H570   1.045       .  S
C571        C572   1.405       .  A
C571        C576   1.398       .  A
C571        H578   1.084       .  S
C572        C573   1.417       .  A
C573        C574   1.414       .  A
C573        N580   1.437       .  S
C574        C575   1.405       .  A
C574        H579   1.084       .  S
C575        C576   1.409       .  A
C576        N577   1.433       .  S
N577        H581   1.046       .  S
N577        H582   1.046       .  S
N580        H583   1.045       .  S
N580        H584   1.046       .  S
C585       C1366   1.404       .  A
C585        C590   1.404       .  A
C585        H592   1.084       .  S
C586       C1239   1.483       .  S
C586       C1365   1.405       .  A
C586        C587   1.413       .  A
C587        C588   1.402       .  A
C587        N594   1.439       .  S
C588        C589   1.405       .  A
C588        H593   1.083       .  S
C589       C1370   1.416       .  A
C590       C1369   1.415       .  A
C590        N591   1.439       .  S
N591        H595   1.046       .  S
N591        H596   1.046       .  S
N594        H597   1.046       .  S
N594        H598   1.046       .  S
C599        C600   1.407       .  A
C599        C604   1.406       .  A
C599        H606   1.084       .  S
C600       C1381   1.413       .  A
C601       C1380   1.411   1_455  A
C601        C602   1.402       .  A
C601        N608   1.433       .  S
C602       C1383   1.407   1_455  A
C602        H607   1.084       .  S
C603       C1235   1.484       .  S
C603       C1382   1.405       .  A
C603        C604   1.412       .  A
C604        N605   1.438       .  S
N605        H609   1.045       .  S
N605        H610   1.046       .  S
N608        H611   1.046       .  S
N608        H612   1.046   1_455  S
C613        C614   1.404       .  A
C613        C618   1.398       .  A
C613        H620   1.084       .  S
C614        C615   1.416   1_556  A
C615        C616   1.411       .  A
C615        N622   1.437       .  S
C616        C617   1.405   1_554  A
C616        H621   1.083       .  S
C617        C618   1.412       .  A
C618        N619   1.434       .  S
N619        H623   1.046       .  S
N619        H624   1.046       .  S
N622        H625   1.045       .  S
N622        H626   1.046       .  S
C627        C628   1.404       .  A
C627        C632   1.395       .  A
C627        H634   1.085       .  S
C628        C629   1.414   1_556  A
C629        C630   1.401       .  A
C629        N636   1.432       .  S
C630        C631   1.405   1_554  A
C630        H635   1.084       .  S
C631        C632   1.416       .  A
C632        N633   1.434       .  S
N633        H637   1.045       .  S
N633        H638   1.044       .  S
N636        H639   1.045       .  S
N636        H640   1.045       .  S
C641        C642   1.408       .  A
C641        C646   1.416       .  A
C641        H648   1.083       .  S
C642        C643   1.418       .  A
C643        C644   1.400       .  A
C643        N650   1.439       .  S
C644        C645   1.403       .  A
C644        H649   1.084       .  S
C645        C646   1.417       .  A
C646        N647   1.437       .  S
N647        H651   1.045       .  S
N647        H652   1.046       .  S
N650        H653   1.046       .  S
N650        H654   1.045       .  S
C655        C656   1.405       .  A
C655        C660   1.398       .  A
C655        H662   1.084       .  S
C656        C657   1.416       .  A
C657        C658   1.413       .  A
C657        N664   1.437       .  S
C658        C659   1.407       .  A
C658        H663   1.083       .  S
C659        C660   1.413       .  A
C660        N661   1.434       .  S
N661        H665   1.045       .  S
N661        H666   1.046       .  S
N664        H667   1.045       .  S
N664        H668   1.046       .  S
C669        C670   1.409       .  A
C669        C674   1.416       .  A
C669        H676   1.083       .  S
C670        C671   1.415       .  A
C671        C672   1.393       .  A
C671        N678   1.434       .  S
C672        C673   1.403       .  A
C672        H677   1.084       .  S
C673        C674   1.416       .  A
C674        N675   1.437       .  S
N675        H679   1.045       .  S
N675        H680   1.046       .  S
N678        H681   1.046       .  S
N678        H682   1.045       .  S
C683        C684   1.404       .  A
C683        C688   1.402       .  A
C683        H690   1.084       .  S
C684        C685   1.418       .  A
C685        C686   1.398       .  A
C685        N692   1.434       .  S
C686        C687   1.402       .  A
C686        H691   1.084       .  S
C687        C688   1.416       .  A
C688        N689   1.433       .  S
N689        H693   1.047       .  S
N689        H694   1.044       .  S
N692        H695   1.044       .  S
N692        H696   1.046       .  S
C697        C698   1.406       .  A
C697        C702   1.408       .  A
C697        H704   1.084       .  S
C698        C699   1.419       .  A
C699        C700   1.398       .  A
C699        N706   1.433       .  S
C700        C701   1.400       .  A
C700        H705   1.084       .  S
C701        C702   1.411       .  A
C702        N703   1.438       .  S
N703        H707   1.046       .  S
N703        H708   1.046       .  S
N706        H709   1.046       .  S
N706        H710   1.044       .  S
C711        C712   1.404       .  A
C711        C716   1.406       .  A
C711        H718   1.084       .  S
C712        C713   1.415       .  A
C713        C714   1.399       .  A
C713        N720   1.433       .  S
C714        C715   1.402       .  A
C714        H719   1.084       .  S
C715        C716   1.413       .  A
C716        N717   1.438       .  S
N717        H721   1.045       .  S
N717        H722   1.046       .  S
N720        H723   1.045       .  S
N720        H724   1.045       .  S
C725        C726   1.409       .  A
C725        C730   1.411       .  A
C725        H732   1.084       .  S
C726        C727   1.412   1_554  A
C727        C728   1.407       .  A
C727        N734   1.432       .  S
C728        C729   1.403   1_556  A
C728        H733   1.084       .  S
C729        C730   1.411       .  A
C730        N731   1.438       .  S
N731        H735   1.046       .  S
N731        H736   1.046       .  S
N734        H737   1.046       .  S
N734        H738   1.046       .  S
C739        C740   1.405   1_556  A
C739        C744   1.401       .  A
C739        H746   1.084       .  S
C740        C741   1.413       .  A
C741        C742   1.410       .  A
C741        N748   1.438       .  S
C742        C743   1.406   1_554  A
C742        H747   1.084       .  S
C743        C744   1.418       .  A
C744        N745   1.440       .  S
N745        H749   1.046       .  S
N745        H750   1.040       .  S
N748        H751   1.045       .  S
N748        H752   1.046       .  S
C753        C754   1.403   1_556  A
C753        C758   1.409       .  A
C753        H760   1.084       .  S
C754        C755   1.412       .  A
C755        C756   1.400       .  A
C755        N762   1.433       .  S
C756        C757   1.408       .  A
C756        H761   1.084       .  S
C757        C758   1.415   1_554  A
C758        N759   1.437       .  S
N759        H763   1.046       .  S
N759        H764   1.045       .  S
N762        H765   1.045       .  S
N762        H766   1.046       .  S
C767        C768   1.410       .  A
C767        C772   1.409       .  A
C767        H774   1.084       .  S
C768        C769   1.417   1_556  A
C769        C770   1.410       .  A
C769        N776   1.437       .  S
C770        C771   1.402   1_554  A
C770        H775   1.084       .  S
C771        C772   1.409       .  A
C772        N773   1.438       .  S
N773        H777   1.046       .  S
N773        H778   1.045       .  S
N776        H779   1.046       .  S
N776        H780   1.045       .  S
Zn781       O785   1.957       .  S
Zn781       O786   2.012       .  S
Zn781       O790   2.022       .  S
Zn781       O797   2.009       .  S
Zn782       O785   1.973   1_556  S
Zn782       O787   2.024       .  S
Zn782       O789   2.035       .  S
Zn782       O793   2.024       .  S
Zn783       O785   1.970   1_556  S
Zn783       O788   2.045       .  S
Zn783       O791   2.021       .  S
Zn783       O794   2.053       .  S
Zn784       O785   1.960       .  S
Zn784       O792   2.015       .  S
Zn784       O795   2.011       .  S
Zn784       O796   2.008       .  S
O786        C798   1.272       .  A
O787        C799   1.273       .  A
O788        C800   1.277   1_556  A
O789        C798   1.275   1_556  A
O790        C800   1.275       .  A
O791        C799   1.273       .  A
O792        C801   1.273       .  A
O793        C802   1.274   1_556  A
O794        C801   1.278   1_556  A
O795        C802   1.273       .  A
O796        C803   1.272       .  A
O797        C803   1.271       .  A
C798       C1161   1.478       .  S
C799       C1088   1.478       .  S
C800       C1133   1.487       .  S
C801       C1147   1.483       .  S
C802       C1116   1.477       .  S
C803       C1102   1.475       .  S
Zn804       O808   1.949       .  S
Zn804       O809   2.005       .  S
Zn804       O813   2.026       .  S
Zn804       O820   2.013       .  S
Zn805       O808   1.981       .  S
Zn805       O810   2.035       .  S
Zn805       O812   2.047       .  S
Zn805       O816   2.011       .  S
Zn806       O808   1.941       .  S
Zn806       O811   2.016       .  S
Zn806       O814   2.004       .  S
Zn806       O817   2.004       .  S
Zn807       O808   1.976       .  S
Zn807       O815   2.051       .  S
Zn807       O818   2.009       .  S
Zn807       O819   2.029       .  S
O809        C821   1.274       .  A
O810        C822   1.274       .  A
O811        C823   1.272       .  A
O812        C821   1.276       .  A
O813        C823   1.274       .  A
O814        C822   1.275       .  A
O815        C824   1.276       .  A
O816        C825   1.273       .  A
O817        C824   1.272       .  A
O818        C825   1.273       .  A
O819        C826   1.274       .  A
O820        C826   1.273       .  A
C821       C1046   1.490       .  S
C822       C1063   1.489       .  S
C823       C1091   1.484       .  S
C824       C1032   1.489       .  S
C825       C1105   1.473       .  S
C826       C1074   1.479       .  S
Zn827       O831   1.946       .  S
Zn827       O832   2.012       .  S
Zn827       O836   1.988       .  S
Zn827       O843   2.006       .  S
Zn828       O833   2.009       .  S
Zn828       O839   2.040       .  S
Zn829       O831   1.978   1_554  S
Zn829       O834   2.053       .  S
Zn829       O837   2.016       .  S
Zn830       O838   2.014       .  S
Zn830       O841   2.006       .  S
Zn830       O842   2.017       .  S
O832        C844   1.272       .  A
O834        C846   1.277   1_554  A
O835        C844   1.277   1_554  A
O836        C846   1.271       .  A
O837        C845   1.275       .  A
O838        C847   1.274       .  A
O839        C848   1.275   1_554  A
O840        C847   1.274   1_554  A
O841        C848   1.272       .  A
O843        C849   1.272       .  A
C844       C1144   1.489       .  S
C846       C1007   1.485       .  S
C847       C1158   1.485   1_556  S
C848       C1021   1.483       .  S
Zn850       O854   1.943   1_655  S
Zn850       O855   1.988       .  S
Zn850       O859   2.004       .  S
Zn850       O866   1.986       .  S
Zn851       O856   2.057       .  S
Zn851       O862   2.012       .  S
Zn852       O857   2.004       .  S
Zn852       O860   1.985       .  S
Zn852       O863   1.978       .  S
Zn853       O854   1.984       .  S
Zn853       O864   2.011       .  S
Zn853       O865   2.039   1_455  S
O855        C867   1.271       .  A
O856        C868   1.277       .  A
O858        C867   1.277       .  A
O859        C869   1.271       .  A
O860        C868   1.270       .  A
O861        C870   1.277       .  A
O863        C870   1.270       .  A
O864        C871   1.274       .  A
O865        C872   1.275       .  A
O866        C872   1.270       .  A
C867       C1077   1.479       .  S
C868        C948   1.482       .  S
C869        C979   1.487       .  S
C870       C1060   1.487       .  S
C871        C990   1.483       .  S
C872        C965   1.474       .  S
Zn873      O1267   1.972   1_554  S
Zn873      O1268   2.049       .  S
Zn873       O882   2.000       .  S
Zn873       O889   2.045   1_565  S
Zn874       O877   1.942   1_556  S
Zn874       O879   2.001       .  S
Zn874       O881   2.003       .  S
Zn874       O885   2.015       .  S
Zn875       O877   1.973       .  S
Zn875       O880   2.025       .  S
Zn875       O883   2.034       .  S
Zn875      O1276   2.031       .  S
Zn876      O1267   1.948   1_545  S
Zn876       O884   2.016       .  S
Zn876       O887   2.005       .  S
Zn876       O888   1.998       .  S
O877      Zn1263   1.965       .  S
O877      Zn1266   1.939   1_554  S
O878      Zn1263   2.024       .  S
O878        C890   1.274       .  A
O879        C891   1.274       .  A
O880        C892   1.275       .  A
O881        C890   1.273   1_556  A
O882       C1282   1.273       .  A
O883        C891   1.275   1_554  A
O884        C893   1.272   1_556  A
O885        C894   1.272       .  A
O886      Zn1265   2.048   1_545  S
O886        C893   1.276       .  A
O887       C1284   1.270   1_545  A
O888        C895   1.273   1_556  A
O889        C895   1.276       .  A
C890       C1119   1.478       .  S
C891       C1004   1.487       .  S
C892       O1272   1.273       .  A
C892        C934   1.489       .  S
C893       C1130   1.485       .  S
C894       O1277   1.268       .  A
C894        C923   1.481       .  S
C895       C1018   1.483       .  S
Zn896       O900   1.978       .  S
Zn896       O901   2.010       .  S
Zn896      O1295   2.057       .  S
Zn896       O912   2.037       .  S
Zn897      O1290   1.970       .  S
Zn897       O902   2.027   1_565  S
Zn897      O1294   2.013       .  S
Zn897      O1298   2.050       .  S
Zn898      O1290   1.944   1_545  S
Zn898       O903   2.009       .  S
Zn898       O906   2.006       .  S
Zn898       O909   2.007       .  S
Zn899       O900   1.948       .  S
Zn899       O907   2.008       .  S
Zn899       O910   2.009       .  S
Zn899       O911   2.012       .  S
O900      Zn1287   1.979       .  S
O900      Zn1288   1.940       .  S
O901        C913   1.275       .  A
O902        C914   1.274       .  A
O903        C915   1.273       .  A
O904      Zn1287   2.022       .  S
O904        C913   1.276       .  A
O905      Zn1286   2.035       .  S
O905        C915   1.274       .  A
O906        C914   1.273       .  A
O907        C916   1.271       .  A
O908      Zn1287   2.058       .  S
O908        C917   1.277       .  A
O909       C1306   1.273   1_545  A
O910        C917   1.273       .  A
O911        C918   1.275       .  A
O912        C918   1.275       .  A
C913        C937   1.488       .  S
C914        C962   1.477       .  S
C915       C1049   1.485       .  S
C916       O1299   1.271       .  A
C916        C920   1.478       .  S
C917       C1035   1.494       .  S
C918        C951   1.483       .  S
C919       C1310   1.406   1_545  A
C919        C924   1.396       .  A
C919        H926   1.084       .  S
C920       C1309   1.403       .  A
C920        C921   1.416       .  A
C921        C922   1.398       .  A
C921        N928   1.433       .  S
C922        C923   1.405       .  A
C922        H927   1.084       .  S
C923       C1314   1.418       .  A
C924       C1313   1.420   1_545  A
C924        N925   1.433       .  S
N925        H929   1.045       .  S
N925        H930   1.045       .  S
N928        H931   1.046       .  S
N928        H932   1.044       .  S
C933       C1324   1.405       .  A
C933        C938   1.400       .  A
C933        H940   1.084       .  S
C934       C1323   1.407       .  A
C934        C935   1.413       .  A
C935        C936   1.404       .  A
C935        N942   1.433       .  S
C936        C937   1.407       .  A
C936        H941   1.084       .  S
C937       C1328   1.412       .  A
C938       C1327   1.412       .  A
C938        N939   1.433       .  S
N939        H943   1.046       .  S
N939        H944   1.046       .  S
N942        H945   1.046       .  S
N942        H946   1.046       .  S
C947        C948   1.404       .  A
C947        C952   1.406       .  A
C947        H954   1.084       .  S
C948        C949   1.411       .  A
C949        C950   1.400       .  A
C949        N956   1.433       .  S
C950        C951   1.403       .  A
C950        H955   1.084       .  S
C951        C952   1.418       .  A
C952        N953   1.432       .  S
N953        H957   1.045       .  S
N953        H958   1.045       .  S
N956        H959   1.046       .  S
N956        H960   1.045       .  S
C961        C962   1.402       .  A
C961        C966   1.399       .  A
C961        H968   1.084       .  S
C962        C963   1.414       .  A
C963        C964   1.409       .  A
C963        N970   1.438       .  S
C964        C965   1.403       .  A
C964        H969   1.084       .  S
C965        C966   1.407       .  A
C966        N967   1.433       .  S
N967        H971   1.046       .  S
N967        H972   1.045       .  S
N970        H973   1.045       .  S
N970        H974   1.046       .  S
C975        C980   1.402       .  A
C975        H982   1.084       .  S
C976        C977   1.412       .  A
C977        C978   1.403       .  A
C977        N984   1.433       .  S
C978        C979   1.407       .  A
C978        H983   1.084       .  S
C980        N981   1.433       .  S
N981        H985   1.046       .  S
N981        H986   1.046       .  S
N984        H987   1.046       .  S
N984        H988   1.046       .  S
C989        C990   1.405   1_655  A
C989        C994   1.400       .  A
C989        H996   1.084       .  S
C991        C992   1.403       .  A
C991        N998   1.433       .  S
C992        H997   1.084       .  S
C993        C994   1.410       .  A
C994        N995   1.433       .  S
N995        H999   1.045       .  S
N995       H1000   1.046       .  S
N998       H1001   1.046       .  S
N998       H1002   1.046       .  S
C1003      C1004   1.403       .  A
C1003      C1008   1.397       .  A
C1003      H1010   1.084       .  S
C1004      C1005   1.417   1_556  A
C1005      C1006   1.413       .  A
C1005      N1012   1.437       .  S
C1006      C1007   1.406   1_554  A
C1006      H1011   1.083       .  S
C1007      C1008   1.411       .  A
C1008      N1009   1.433       .  S
N1009      H1013   1.046       .  S
N1009      H1014   1.046       .  S
N1012      H1015   1.046       .  S
N1012      H1016   1.045       .  S
C1017      C1018   1.403   1_556  A
C1017      C1022   1.396       .  A
C1017      H1024   1.084       .  S
C1018      C1019   1.417       .  A
C1019      C1020   1.406       .  A
C1019      N1026   1.432       .  S
C1020      C1021   1.407   1_554  A
C1020      H1025   1.084       .  S
C1021      C1022   1.416       .  A
C1022      N1023   1.433       .  S
N1023      H1027   1.045       .  S
N1023      H1028   1.044       .  S
N1026      H1029   1.045       .  S
N1026      H1030   1.046       .  S
C1031      C1032   1.406       .  A
C1031      C1036   1.414       .  A
C1031      H1038   1.083       .  S
C1032      C1033   1.410       .  A
C1033      C1034   1.401       .  A
C1033      N1040   1.433       .  S
C1034      C1035   1.406       .  A
C1034      H1039   1.084       .  S
C1035      C1036   1.416       .  A
C1036      N1037   1.437       .  S
N1037      H1041   1.045       .  S
N1037      H1042   1.046       .  S
N1040      H1043   1.045       .  S
N1040      H1044   1.046       .  S
C1045      C1046   1.405       .  A
C1045      C1050   1.399       .  A
C1045      H1052   1.084       .  S
C1046      C1047   1.417       .  A
C1047      C1048   1.413       .  A
C1047      N1054   1.437       .  S
C1048      C1049   1.406       .  A
C1048      H1053   1.083       .  S
C1049      C1050   1.409       .  A
C1050      N1051   1.433       .  S
N1051      H1055   1.046       .  S
N1051      H1056   1.045       .  S
N1054      H1057   1.046       .  S
N1054      H1058   1.046       .  S
C1059      C1060   1.406       .  A
C1059      C1064   1.415       .  A
C1059      H1066   1.083       .  S
C1060      C1061   1.412       .  A
C1061      C1062   1.395       .  A
C1061      N1068   1.434       .  S
C1062      C1063   1.402       .  A
C1062      H1067   1.084       .  S
C1063      C1064   1.418       .  A
C1064      N1065   1.437       .  S
N1065      H1069   1.046       .  S
N1065      H1070   1.045       .  S
N1068      H1071   1.046       .  S
N1068      H1072   1.045       .  S
C1073      C1074   1.406       .  A
C1073      C1078   1.403       .  A
C1073      H1080   1.084       .  S
C1074      C1075   1.414       .  A
C1075      C1076   1.397       .  A
C1075      N1082   1.433       .  S
C1076      C1077   1.403       .  A
C1076      H1081   1.084       .  S
C1077      C1078   1.414       .  A
C1078      N1079   1.433       .  S
N1079      H1083   1.047       .  S
N1079      H1084   1.044       .  S
N1082      H1085   1.044       .  S
N1082      H1086   1.046       .  S
C1087      C1088   1.403       .  A
C1087      C1092   1.405       .  A
C1087      H1094   1.084       .  S
C1088      C1089   1.414       .  A
C1089      C1090   1.401       .  A
C1089      N1096   1.433       .  S
C1090      C1091   1.405       .  A
C1090      H1095   1.084       .  S
C1091      C1092   1.413       .  A
C1092      N1093   1.433       .  S
N1093      H1097   1.046       .  S
N1093      H1098   1.046       .  S
N1096      H1099   1.044       .  S
N1096      H1100   1.046       .  S
C1101      C1102   1.403       .  A
C1101      C1106   1.405       .  A
C1101      H1108   1.084       .  S
C1102      C1103   1.415       .  A
C1103      C1104   1.397       .  A
C1103      N1110   1.433       .  S
C1104      C1105   1.402       .  A
C1104      H1109   1.084       .  S
C1105      C1106   1.411       .  A
C1106      N1107   1.438       .  S
N1107      H1111   1.046       .  S
N1107      H1112   1.046       .  S
N1110      H1113   1.046       .  S
N1110      H1114   1.044       .  S
C1115      C1116   1.404       .  A
C1115      C1120   1.407       .  A
C1115      H1122   1.084       .  S
C1116      C1117   1.411   1_554  A
C1117      C1118   1.403       .  A
C1117      N1124   1.438       .  S
C1118      C1119   1.403   1_556  A
C1118      H1123   1.084       .  S
C1119      C1120   1.413       .  A
C1120      N1121   1.438       .  S
N1121      H1125   1.046       .  S
N1121      H1126   1.046       .  S
N1124      H1127   1.045       .  S
N1124      H1128   1.046       .  S
C1129      C1130   1.405   1_556  A
C1129      C1134   1.407       .  A
C1129      H1136   1.084       .  S
C1130      C1131   1.413       .  A
C1131      C1132   1.410       .  A
C1131      N1138   1.438       .  S
C1132      C1133   1.405       .  A
C1132      H1137   1.084       .  S
C1133      C1134   1.411   1_554  A
C1134      N1135   1.433       .  S
N1135      H1139   1.045       .  S
N1135      H1140   1.046       .  S
N1138      H1141   1.045       .  S
N1138      H1142   1.046       .  S
C1143      C1144   1.406   1_554  A
C1143      C1148   1.411       .  A
C1143      H1150   1.084       .  S
C1144      C1145   1.413       .  A
C1145      C1146   1.406       .  A
C1145      N1152   1.432       .  S
C1146      C1147   1.402   1_556  A
C1146      H1151   1.084       .  S
C1147      C1148   1.412       .  A
C1148      N1149   1.437       .  S
N1149      H1153   1.045       .  S
N1149      H1154   1.046       .  S
N1152      H1155   1.045       .  S
N1152      H1156   1.046       .  S
C1157      C1158   1.405   1_556  A
C1157      C1162   1.402       .  A
C1157      H1164   1.084       .  S
C1158      C1159   1.416       .  A
C1159      C1160   1.409       .  A
C1159      N1166   1.438       .  S
C1160      C1161   1.404       .  A
C1160      H1165   1.084       .  S
C1161      C1162   1.406   1_554  A
C1162      N1163   1.432       .  S
N1163      H1167   1.046       .  S
N1163      H1168   1.046       .  S
N1166      H1169   1.046       .  S
N1166      H1170   1.045       .  S
Zn1171     O1175   1.956       .  S
Zn1171     O1176   2.018       .  S
Zn1171     O1180   2.003       .  S
Zn1171     O1187   2.006       .  S
Zn1172     O1175   1.969   1_556  S
Zn1172     O1177   2.017       .  S
Zn1172     O1179   2.049       .  S
Zn1172     O1183   2.045       .  S
Zn1173     O1175   1.976   1_556  S
Zn1173     O1178   2.023       .  S
Zn1173     O1181   2.024       .  S
Zn1173     O1184   2.034       .  S
Zn1174     O1175   1.960       .  S
Zn1174     O1182   2.016       .  S
Zn1174     O1185   2.020       .  S
Zn1174     O1186   2.021       .  S
O1176      C1188   1.272       .  A
O1177      C1189   1.273       .  A
O1178      C1190   1.274   1_556  A
O1179      C1188   1.276   1_556  A
O1180      C1190   1.272       .  A
O1181      C1189   1.274       .  A
O1182      C1191   1.273       .  A
O1183      C1192   1.277   1_556  A
O1184      C1191   1.275   1_556  A
O1185      C1192   1.275       .  A
O1186      C1193   1.273       .  A
O1187      C1193   1.271       .  A
C1188      C1551   1.486       .  S
C1189      C1478   1.483       .  S
C1190      C1523   1.470   1_554  S
C1191      C1537   1.481       .  S
C1192      C1506   1.487       .  S
C1193      C1492   1.476       .  S
Zn1194     O1198   1.946       .  S
Zn1194     O1199   2.003       .  S
Zn1194     O1203   2.015       .  S
Zn1194     O1210   1.993       .  S
Zn1195     O1198   1.982       .  S
Zn1195     O1200   2.048       .  S
Zn1195     O1202   2.056       .  S
Zn1195     O1206   2.013       .  S
Zn1196     O1198   1.942       .  S
Zn1196     O1201   2.020       .  S
Zn1196     O1204   1.996       .  S
Zn1196     O1207   2.007       .  S
Zn1197     O1198   1.983       .  S
Zn1197     O1205   2.059       .  S
Zn1197     O1208   2.022       .  S
Zn1197     O1209   2.051       .  S
O1199      C1211   1.273       .  A
O1200      C1212   1.276       .  A
O1201      C1213   1.273       .  A
O1202      C1211   1.277       .  A
O1203      C1213   1.272       .  A
O1204      C1212   1.273       .  A
O1205      C1214   1.278       .  A
O1206      C1215   1.274       .  A
O1207      C1214   1.274       .  A
O1208      C1215   1.276       .  A
O1209      C1216   1.277       .  A
O1210      C1216   1.270       .  A
C1211      C1436   1.494       .  S
C1212      C1453   1.491       .  S
C1213      C1481   1.477       .  S
C1214      C1422   1.492       .  S
C1215      C1495   1.477       .  S
C1216      C1464   1.483       .  S
Zn1217     O1221   1.942       .  S
Zn1217     O1222   2.000       .  S
Zn1217     O1226   1.982       .  S
Zn1217     O1233   1.999       .  S
Zn1218     O1223   1.997       .  S
Zn1218     O1229   2.017       .  S
Zn1219     O1221   1.977   1_554  S
Zn1219     O1224   2.052       .  S
Zn1219     O1227   2.034       .  S
Zn1220     O1228   2.020       .  S
Zn1220     O1231   2.000       .  S
Zn1220     O1232   2.012       .  S
O1222      C1234   1.271   1_556  A
O1224      C1236   1.277   1_554  A
O1225      C1234   1.274       .  A
O1226      C1236   1.271       .  A
O1227      C1235   1.277       .  A
O1228      C1237   1.274       .  A
O1229      C1238   1.273   1_554  A
O1230      C1237   1.277   1_554  A
O1231      C1238   1.272       .  A
O1233      C1239   1.271       .  A
C1234      C1534   1.483       .  S
C1236      C1397   1.487       .  S
C1237      C1548   1.493   1_556  S
C1238      C1411   1.474       .  S
Zn1240     O1244   1.941   1_655  S
Zn1240     O1245   2.007       .  S
Zn1240     O1249   2.014       .  S
Zn1240     O1256   1.993       .  S
Zn1241     O1246   2.029       .  S
Zn1241     O1252   2.009       .  S
Zn1242     O1247   1.999       .  S
Zn1242     O1250   1.990       .  S
Zn1242     O1253   1.984       .  S
Zn1243     O1244   1.985       .  S
Zn1243     O1254   2.027       .  S
Zn1243     O1255   2.043   1_455  S
O1245      C1257   1.273       .  A
O1246      C1258   1.274       .  A
O1248      C1257   1.274       .  A
O1249      C1259   1.272   1_655  A
O1250      C1258   1.270       .  A
O1251      C1260   1.279       .  A
O1253      C1260   1.270       .  A
O1254      C1261   1.275       .  A
O1255      C1262   1.277       .  A
O1256      C1262   1.273       .  A
C1257      C1467   1.480       .  S
C1258      C1338   1.470       .  S
C1259      C1369   1.483       .  S
C1260      C1450   1.492       .  S
C1261      C1380   1.487   1_455  S
C1262      C1355   1.481       .  S
Zn1263     O1272   2.002       .  S
Zn1263     O1279   2.028       .  S
Zn1264     O1267   1.948       .  S
Zn1264     O1269   1.993       .  S
Zn1264     O1271   2.019       .  S
Zn1264     O1275   2.009       .  S
Zn1265     O1267   1.979   1_554  S
Zn1265     O1270   2.016       .  S
Zn1265     O1273   2.048       .  S
Zn1266     O1274   1.989       .  S
Zn1266     O1277   1.993       .  S
Zn1266     O1278   1.986       .  S
O1268      C1280   1.276   1_554  A
O1269      C1281   1.273       .  A
O1270      C1282   1.274       .  A
O1271      C1280   1.273       .  A
O1273      C1281   1.276   1_554  A
O1274      C1283   1.271       .  A
O1275      C1284   1.273       .  A
O1276      C1283   1.275   1_554  A
O1278      C1285   1.270   1_556  A
O1279      C1285   1.274       .  A
C1280      C1509   1.486   1_556  S
C1281      C1394   1.489       .  S
C1282      C1324   1.483       .  S
C1283      C1520   1.483       .  S
C1284      C1313   1.490       .  S
C1285      C1408   1.475       .  S
Zn1286     O1290   1.969   1_545  S
Zn1286     O1291   2.001       .  S
Zn1286     O1302   2.013   1_545  S
Zn1287     O1292   2.048       .  S
Zn1288     O1293   2.001       .  S
Zn1288     O1296   1.986       .  S
Zn1288     O1299   2.000       .  S
Zn1289     O1290   1.946       .  S
Zn1289     O1297   2.004       .  S
Zn1289     O1300   2.013       .  S
Zn1289     O1301   2.005       .  S
O1291      C1303   1.273   1_545  A
O1292      C1304   1.276       .  A
O1293      C1305   1.271       .  A
O1294      C1303   1.274       .  A
O1295      C1305   1.277       .  A
O1296      C1304   1.271       .  A
O1297      C1306   1.270       .  A
O1298      C1307   1.276       .  A
O1300      C1307   1.274       .  A
O1301      C1308   1.272       .  A
O1302      C1308   1.272       .  A
C1303      C1327   1.484       .  S
C1304      C1352   1.486       .  S
C1305      C1439   1.493       .  S
C1306      C1310   1.490       .  S
C1307      C1425   1.491       .  S
C1308      C1341   1.467       .  S
C1309      C1314   1.396       .  A
C1309      H1316   1.084       .  S
C1310      C1311   1.420       .  A
C1311      C1312   1.398       .  A
C1311      N1318   1.433       .  S
C1312      C1313   1.407       .  A
C1312      H1317   1.084       .  S
C1314      N1315   1.433       .  S
N1315      H1319   1.043       .  S
N1315      H1320   1.047       .  S
N1318      H1321   1.045       .  S
N1318      H1322   1.045       .  S
C1323      C1328   1.401       .  A
C1323      H1330   1.083       .  S
C1324      C1325   1.412   1_565  A
C1325      C1326   1.402       .  A
C1325      N1332   1.433       .  S
C1326      C1327   1.407   1_545  A
C1326      H1331   1.084       .  S
C1328      N1329   1.433       .  S
N1329      H1333   1.046       .  S
N1329      H1334   1.046       .  S
N1332      H1335   1.046       .  S
N1332      H1336   1.046   1_545  S
C1337      C1338   1.402       .  A
C1337      C1342   1.398       .  A
C1337      H1344   1.084       .  S
C1338      C1339   1.414       .  A
C1339      C1340   1.398       .  A
C1339      N1346   1.433       .  S
C1340      C1341   1.401       .  A
C1340      H1345   1.084       .  S
C1341      C1342   1.411       .  A
C1342      N1343   1.433       .  S
N1343      H1347   1.046       .  S
N1343      H1348   1.044       .  S
N1346      H1349   1.044       .  S
N1346      H1350   1.046       .  S
C1351      C1352   1.405       .  A
C1351      C1356   1.397       .  A
C1351      H1358   1.084       .  S
C1352      C1353   1.416       .  A
C1353      C1354   1.412       .  A
C1353      N1360   1.437       .  S
C1354      C1355   1.405       .  A
C1354      H1359   1.083       .  S
C1355      C1356   1.409       .  A
C1356      N1357   1.433       .  S
N1357      H1361   1.046       .  S
N1357      H1362   1.046       .  S
N1360      H1363   1.045       .  S
N1360      H1364   1.046       .  S
C1365      C1370   1.404       .  A
C1365      H1372   1.084       .  S
C1366      C1367   1.412   1_455  A
C1367      C1368   1.404       .  A
C1367      N1374   1.438       .  S
C1368      C1369   1.405   1_655  A
C1368      H1373   1.084       .  S
C1370      N1371   1.439       .  S
N1371      H1375   1.046       .  S
N1371      H1376   1.046       .  S
N1374      H1377   1.046       .  S
N1374      H1378   1.045       .  S
C1379      C1380   1.408       .  A
C1379      C1384   1.405       .  A
C1379      H1386   1.083       .  S
C1381      C1382   1.406       .  A
C1381      N1388   1.438       .  S
C1382      H1387   1.084       .  S
C1383      C1384   1.413       .  A
C1384      N1385   1.438       .  S
N1385      H1389   1.046       .  S
N1385      H1390   1.046       .  S
N1388      H1391   1.046       .  S
N1388      H1392   1.045       .  S
C1393      C1394   1.404       .  A
C1393      C1398   1.396       .  A
C1393      H1400   1.084       .  S
C1394      C1395   1.416   1_556  A
C1395      C1396   1.414       .  A
C1395      N1402   1.437       .  S
C1396      C1397   1.407   1_554  A
C1396      H1401   1.083       .  S
C1397      C1398   1.412       .  A
C1398      N1399   1.434       .  S
N1399      H1403   1.046       .  S
N1399      H1404   1.046       .  S
N1402      H1405   1.046       .  S
N1402      H1406   1.046       .  S
C1407      C1408   1.404   1_556  A
C1407      C1412   1.395       .  A
C1407      H1414   1.084       .  S
C1408      C1409   1.414       .  A
C1409      C1410   1.400       .  A
C1409      N1416   1.432       .  S
C1410      C1411   1.404   1_554  A
C1410      H1415   1.084       .  S
C1411      C1412   1.414       .  A
C1412      N1413   1.434       .  S
N1413      H1417   1.046       .  S
N1413      H1418   1.044       .  S
N1416      H1419   1.045       .  S
N1416      H1420   1.046       .  S
C1421      C1422   1.408       .  A
C1421      C1426   1.415       .  A
C1421      H1428   1.083       .  S
C1422      C1423   1.413       .  A
C1423      C1424   1.403       .  A
C1423      N1430   1.438       .  S
C1424      C1425   1.404       .  A
C1424      H1429   1.084       .  S
C1425      C1426   1.416       .  A
C1426      N1427   1.437       .  S
N1427      H1431   1.045       .  S
N1427      H1432   1.046       .  S
N1430      H1433   1.046       .  S
N1430      H1434   1.045       .  S
C1435      C1436   1.405       .  A
C1435      C1440   1.401       .  A
C1435      H1442   1.084       .  S
C1436      C1437   1.417       .  A
C1437      C1438   1.415       .  A
C1437      N1444   1.437       .  S
C1438      C1439   1.407       .  A
C1438      H1443   1.083       .  S
C1439      C1440   1.413       .  A
C1440      N1441   1.433       .  S
N1441      H1445   1.046       .  S
N1441      H1446   1.046       .  S
N1444      H1447   1.045       .  S
N1444      H1448   1.046       .  S
C1449      C1450   1.407       .  A
C1449      C1454   1.415       .  A
C1449      H1456   1.083       .  S
C1450      C1451   1.414       .  A
C1451      C1452   1.397       .  A
C1451      N1458   1.434       .  S
C1452      C1453   1.403       .  A
C1452      H1457   1.084       .  S
C1453      C1454   1.417       .  A
C1454      N1455   1.437       .  S
N1455      H1459   1.045       .  S
N1455      H1460   1.046       .  S
N1458      H1461   1.046       .  S
N1458      H1462   1.046       .  S
C1463      C1464   1.406       .  A
C1463      C1468   1.404       .  A
C1463      H1470   1.084       .  S
C1464      C1465   1.417       .  A
C1465      C1466   1.397       .  A
C1465      N1472   1.433       .  S
C1466      C1467   1.402       .  A
C1466      H1471   1.084       .  S
C1467      C1468   1.416       .  A
C1468      N1469   1.433       .  S
N1469      H1473   1.046       .  S
N1469      H1474   1.044       .  S
N1472      H1475   1.043       .  S
N1472      H1476   1.046       .  S
C1477      C1478   1.406       .  A
C1477      C1482   1.408       .  A
C1477      H1484   1.084       .  S
C1478      C1479   1.418       .  A
C1479      C1480   1.399       .  A
C1479      N1486   1.433       .  S
C1480      C1481   1.401       .  A
C1480      H1485   1.084       .  S
C1481      C1482   1.411       .  A
C1482      N1483   1.438       .  S
N1483      H1487   1.046       .  S
N1483      H1488   1.046       .  S
N1486      H1489   1.046       .  S
N1486      H1490   1.044       .  S
C1491      C1492   1.404       .  A
C1491      C1496   1.408       .  A
C1491      H1498   1.084       .  S
C1492      C1493   1.414       .  A
C1493      C1494   1.396       .  A
C1493      N1500   1.433       .  S
C1494      C1495   1.402       .  A
C1494      H1499   1.084       .  S
C1495      C1496   1.414       .  A
C1496      N1497   1.438       .  S
N1497      H1501   1.046       .  S
N1497      H1502   1.046       .  S
N1500      H1503   1.046       .  S
N1500      H1504   1.044       .  S
C1505      C1506   1.406       .  A
C1505      C1510   1.409       .  A
C1505      H1512   1.084       .  S
C1506      C1507   1.414   1_554  A
C1507      C1508   1.410       .  A
C1507      N1514   1.438       .  S
C1508      C1509   1.405   1_556  A
C1508      H1513   1.084       .  S
C1509      C1510   1.412       .  A
C1510      N1511   1.438       .  S
N1511      H1515   1.046       .  S
N1511      H1516   1.046       .  S
N1514      H1517   1.045       .  S
N1514      H1518   1.045       .  S
C1519      C1520   1.406       .  A
C1519      C1524   1.398       .  A
C1519      H1526   1.084       .  S
C1520      C1521   1.414   1_556  A
C1521      C1522   1.406       .  A
C1521      N1528   1.437       .  S
C1522      C1523   1.402   1_554  A
C1522      H1527   1.084       .  S
C1523      C1524   1.416       .  A
C1524      N1525   1.440       .  S
N1525      H1529   1.046       .  S
N1525      H1530   1.041       .  S
N1528      H1531   1.045       .  S
N1528      H1532   1.046       .  S
C1533      C1534   1.406   1_556  A
C1533      C1538   1.407       .  A
C1533      H1540   1.084       .  S
C1534      C1535   1.415       .  A
C1535      C1536   1.402       .  A
C1535      N1542   1.432       .  S
C1536      C1537   1.405       .  A
C1536      H1541   1.084       .  S
C1537      C1538   1.412   1_554  A
C1538      N1539   1.438       .  S
N1539      H1543   1.046       .  S
N1539      H1544   1.045       .  S
N1542      H1545   1.045       .  S
N1542      H1546   1.045       .  S
C1547      C1548   1.407   1_556  A
C1547      C1552   1.408       .  A
C1547      H1554   1.084       .  S
C1548      C1549   1.416       .  A
C1549      C1550   1.412       .  A
C1549      N1556   1.438       .  S
C1550      C1551   1.405       .  A
C1550      H1555   1.084       .  S
C1551      C1552   1.411   1_554  A
C1552      N1553   1.438       .  S
N1553      H1557   1.046       .  S
N1553      H1558   1.045       .  S
N1556      H1559   1.046       .  S
N1556      H1560   1.045       .  S
