geometry optimzed in LAMMPS
_audit_creation_date              2020-11-30 
_audit_creation_method            'lammps2cif' 
_symmetry_space_group_name_H-M    'P1' 
_symmetry_Int_Tables_number       1 
_symmetry_cell_setting            triclinic 
loop_ 
_symmetry_equiv_pos_as_xyz 
  x,y,z 
_cell_length_a                    28.85538543 
_cell_length_b                    28.782273065833678 
_cell_length_c                    71.4610256870987 
_cell_angle_alpha                 90.01656333163137 
_cell_angle_beta                  89.92029107116215 
_cell_angle_gamma                 120.06363610352982 
loop_ 
_atom_site_label 
_atom_site_type_symbol 
_atom_site_fract_x 
_atom_site_fract_y 
_atom_site_fract_z 
_atom_site_charge 
C1          C  0.62495590  0.01853420  0.70926751     0.80300
N2          N  0.67257285  0.03779075  0.70007107    -0.78100
C3          C  0.71682323  0.08344647  0.70604914     0.82700
N4          N  0.71286339  0.10917973  0.72137428    -0.78000
C5          C  0.66593114  0.09062736  0.73073229     0.82800
N6          N  0.62245187  0.04527850  0.72457432    -0.79700
C7          C  0.97625710  0.14847180  0.64856909     0.80300
N8          N  0.92948965  0.13243806  0.65765338    -0.78100
C9          C  0.92748998  0.15714858  0.67355928     0.82700
N10         N  0.97350064  0.19872588  0.68038233    -0.78000
C11         C  0.02109669  0.21541352  0.67150084     0.82800
N12         N  0.02187648  0.19043982  0.65545634    -0.79700
C13         C  0.55216367  0.88581974  0.83781855     0.80300
N14         N  0.57916518  0.86563949  0.84726987    -0.78100
C15         C  0.58042323  0.82196772  0.84063436     0.82700
N16         N  0.55504773  0.79915481  0.82435732    -0.78000
C17         C  0.52802980  0.81856677  0.81467226     0.82800
N18         N  0.52687969  0.86191828  0.82153710    -0.79700
C19         C  0.74229508  0.68430679  0.87801322     0.80300
N20         N  0.71403237  0.70304022  0.86857657    -0.78100
C21         C  0.71493538  0.74848585  0.87426852     0.82700
N22         N  0.74405799  0.77490736  0.88955865    -0.78000
C23         C  0.77308178  0.75718766  0.89889353     0.82800
N24         N  0.77185691  0.71171596  0.89311865    -0.79700
C25         C  0.89649658  0.55727156  0.50324801     0.80300
N26         N  0.86850265  0.53168395  0.48763137    -0.78100
C27         C  0.86249349  0.48357118  0.48247944     0.82700
N28         N  0.88565334  0.46161992  0.49292330    -0.78000
C29         C  0.91386701  0.48647599  0.50854167     0.82800
N30         N  0.91920061  0.53445380  0.51371928    -0.79700
C31         C  0.11039747  0.42807303  0.56604302     0.80300
N32         N  0.07833876  0.44245865  0.55706061    -0.78100
C33         C  0.05058480  0.41572014  0.54165935     0.82700
N34         N  0.05491393  0.37356620  0.53526874    -0.78000
C35         C  0.08689313  0.35817979  0.54413522     0.82800
N36         N  0.11413918  0.38554643  0.55964067    -0.79700
C37         C  0.64056747  0.47115852  0.98239349     0.80300
N38         N  0.59383815  0.45295794  0.99188548    -0.78100
C39         C  0.59128037  0.47831655  0.00754164     0.82700
N40         N  0.63623569  0.52306514  0.01334958    -0.78000
C41         C  0.68333983  0.54237078  0.00391377     0.82800
N42         N  0.68516833  0.51607291  0.98838219    -0.79700
C43         C  0.33554568  0.41442203  0.06812432     0.80300
N44         N  0.29000463  0.37043961  0.06211880    -0.78100
C45         C  0.29146145  0.34094326  0.04745131     0.82700
N46         N  0.33905612  0.35644444  0.03874275    -0.78000
C47         C  0.38485035  0.40035595  0.04455994     0.82800
N48         N  0.38252504  0.42869789  0.05936689    -0.79700
C49         C  0.00865561  0.76098858  0.39995036     0.80300
N50         N  0.05567295  0.78180207  0.39052560    -0.78100
C51         C  0.05960320  0.75905143  0.37447603     0.82700
N52         N  0.01573035  0.71424201  0.36798981    -0.78000
C53         C  0.96838421  0.69262156  0.37728302     0.82800
N54         N  0.96500531  0.71628075  0.39327510    -0.79700
C55         C  0.31543901  0.83099126  0.31197083     0.80300
N56         N  0.26791953  0.81183231  0.32101594    -0.78100
C57         C  0.26282810  0.83723379  0.33614381     0.82700
N58         N  0.30626237  0.88291764  0.34222710    -0.78000
C59         C  0.35418207  0.90316050  0.33341409     0.82800
N60         N  0.35858151  0.87688822  0.31823803    -0.79700
C61         C  0.23321203  0.22677145  0.16586350     0.80300
N62         N  0.25796700  0.20581082  0.17614698    -0.78100
C63         C  0.25540920  0.15905751  0.17098636     0.82700
N64         N  0.22775079  0.13345027  0.15534626    -0.78000
C65         C  0.20220628  0.15336468  0.14498316     0.82800
N66         N  0.20532297  0.20028371  0.15027533    -0.79700
C67         C  0.43725794  0.09146323  0.23607623     0.80300
N68         N  0.40939926  0.11018531  0.22647548    -0.78100
C69         C  0.38329813  0.08577027  0.21043593     0.82700
N70         N  0.38476429  0.04173098  0.20423053    -0.78000
C71         C  0.41270560  0.02253058  0.21366203     0.82800
N72         N  0.43903378  0.04806601  0.22952022    -0.79700
C73         C  0.05256416  0.58880357  0.83661601     0.80300
N74         N  0.06901723  0.63531130  0.84612892    -0.78100
C75         C  0.11308858  0.68098107  0.84033236     0.82700
N76         N  0.14033666  0.68024061  0.82498278    -0.78000
C77         C  0.12412280  0.63440711  0.81530275     0.82800
N78         N  0.08008575  0.58888788  0.82115346    -0.79700
C79         C  0.18920471  0.93374787  0.90180778     0.80300
N80         N  0.23373618  0.97829014  0.89551879    -0.78100
C81         C  0.26213314  0.97518550  0.88076182     0.82700
N82         N  0.24534968  0.92678135  0.87245052    -0.78000
C83         C  0.20085085  0.88232389  0.87872894     0.82800
N84         N  0.17320176  0.88633038  0.89324774    -0.79700
C85         C  0.77977065  0.73630230  0.64395267     0.80300
N86         N  0.73513364  0.73711913  0.64973077    -0.78100
C87         C  0.70986836  0.71150871  0.66584224     0.82700
N88         N  0.72936661  0.68523685  0.67601102    -0.78000
C89         C  0.77360281  0.68428306  0.67042131     0.82800
N90         N  0.79842406  0.70992047  0.65441548    -0.79700
C91         C  0.85568648  0.51470253  0.73475290     0.80300
N92         N  0.90166293  0.51703624  0.72912415    -0.78100
C93         C  0.93100366  0.55030347  0.71492560     0.82700
N94         N  0.91331474  0.58040330  0.70611506    -0.78000
C95         C  0.86694624  0.57788442  0.71160707     0.82800
N96         N  0.83887074  0.54527415  0.72603409    -0.79700
C97         C  0.46024683  0.31321933  0.47844070     0.80300
N98         N  0.47767313  0.36022106  0.48765757    -0.78100
C99         C  0.45157830  0.36299937  0.50301299     0.82700
N100        N  0.40787868  0.31757950  0.50936732    -0.78000
C101        C  0.38997369  0.26987766  0.50045949     0.82800
N102        N  0.41640010  0.26822704  0.48488098    -0.79700
C103        C  0.52319346  0.61172611  0.56939613     0.80300
N104        N  0.56869175  0.65645823  0.56346013    -0.78100
C105        C  0.59469066  0.65447288  0.54774674     0.82700
N106        N  0.57484193  0.60721662  0.53831005    -0.78000
C107        C  0.53002672  0.56244369  0.54419265     0.82800
N108        N  0.50455814  0.56535497  0.55963638    -0.79700
C109        C  0.38438447  0.04622410  0.00063253     0.80300
N110        N  0.40192366  0.01648184  0.00972580    -0.78100
C111        C  0.44575421  0.01532245  0.00334213     0.82700
N112        N  0.47164016  0.04386228  0.98786155    -0.78000
C113        C  0.45426956  0.07317810  0.97854586     0.82800
N114        N  0.41060251  0.07413116  0.98502033    -0.79700
C115        C  0.58708929  0.85967931  0.04384249     0.80300
N116        N  0.55879133  0.83180569  0.05915787    -0.78100
C117        C  0.51674317  0.83593406  0.06547822     0.82700
N118        N  0.50233359  0.86757987  0.05624804    -0.78000
C119        C  0.52950710  0.89543504  0.04085659     0.82800
N120        N  0.57228355  0.89176617  0.03467572    -0.79700
C121        C  0.20125609  0.18895536  0.40448421     0.80300
N122        N  0.18526617  0.22060937  0.39581460    -0.78100
C123        C  0.21144654  0.24971118  0.38040302     0.82700
N124        N  0.25414232  0.24695968  0.37391755    -0.78000
C125        C  0.27065936  0.21550246  0.38233411     0.82800
N126        N  0.24387756  0.18629538  0.39761200    -0.79700
C127        C  0.12988099  0.41467850  0.31287545     0.80300
N128        N  0.15152725  0.39287493  0.32425966    -0.78100
C129        C  0.12788111  0.36878159  0.34063229     0.82700
N130        N  0.08153386  0.36675319  0.34560653    -0.78000
C131        C  0.05894827  0.38857471  0.33453801     0.82800
N132        N  0.08340679  0.41242966  0.31811704    -0.79700
C133        C  0.86815618  0.26834148  0.23724368     0.80300
N134        N  0.84912540  0.21987393  0.22885840    -0.78100
C135        C  0.87336787  0.21438547  0.21343400     0.82700
N136        N  0.91755779  0.25802875  0.20640204    -0.78000
C137        C  0.93720716  0.30679383  0.21458899     0.82800
N138        N  0.91222667  0.31140564  0.23005607    -0.79700
C139        C  0.80781975  0.96411582  0.15132637     0.80300
N140        N  0.82796119  0.00909558  0.16191124    -0.78100
C141        C  0.80368365  0.00938239  0.17816089     0.82700
N142        N  0.75796973  0.96432479  0.18357237    -0.78000
C143        C  0.73741604  0.91882328  0.17313022     0.82800
N144        N  0.76282797  0.91921919  0.15705073    -0.79700
C145        C  0.53689459  0.64612722  0.31305605     0.80300
N146        N  0.53633952  0.60121264  0.31929333    -0.78100
C147        C  0.56547705  0.60281368  0.33447468     0.82700
N148        N  0.59615469  0.65046273  0.34320843    -0.78000
C149        C  0.59758659  0.69582313  0.33698563     0.82800
N150        N  0.56782855  0.69337863  0.32194376    -0.79700
C151        C  0.78049574  0.94392525  0.40102921     0.80300
N152        N  0.74997500  0.89694498  0.39198696    -0.78100
C153        C  0.71970040  0.89422448  0.37714985     0.82700
N154        N  0.72032082  0.93930911  0.37111925    -0.78000
C155        C  0.75062418  0.98677648  0.38001635     0.82800
N156        N  0.78021183  0.98856216  0.39507928    -0.79700
C157        C  0.42456831  0.26583754  0.73642691     0.80300
N158        N  0.39085179  0.21822001  0.72821164    -0.78100
C159        C  0.36142534  0.21570615  0.71312542     0.82700
N160        N  0.36555767  0.26161333  0.70640300    -0.78000
C161        C  0.39881605  0.30987093  0.71450826     0.82800
N162        N  0.42823673  0.31170842  0.72962665    -0.79700
C163        C  0.20287565  0.91620260  0.67596510     0.80300
N164        N  0.22547836  0.96205584  0.68643909    -0.78100
C165        C  0.22472646  0.00649504  0.68026452     0.82700
N166        N  0.20203810  0.00470962  0.66349900    -0.78000
C167        C  0.18008967  0.96012840  0.65273440     0.82800
N168        N  0.18063946  0.91603498  0.65910995    -0.79700
C169        C  0.64387550  0.07710422  0.47946190     0.80300
N170        N  0.59747678  0.04618891  0.48887697    -0.78100
C171        C  0.59541088  0.01556889  0.50368789     0.82700
N172        N  0.64065984  0.01556740  0.50895338    -0.78000
C173        C  0.68738532  0.04564544  0.49946017     0.82800
N174        N  0.68872866  0.07635077  0.48474644    -0.79700
C175        C  0.33674055  0.82809823  0.56408621     0.80300
N176        N  0.38316417  0.85390078  0.55420967    -0.78100
C177        C  0.38631838  0.87997748  0.53794241     0.82700
N178        N  0.34178713  0.88006329  0.53155747    -0.78000
C179        C  0.29463400  0.85400058  0.54120798     0.82800
N180        N  0.29290957  0.82841626  0.55744247    -0.79700
C181        C  0.67330581  0.50443126  0.23237183     0.80300
N182        N  0.71997890  0.53172614  0.22286732    -0.78100
C183        C  0.72464581  0.56264359  0.20794469     0.82700
N184        N  0.68177848  0.56689274  0.20257244    -0.78000
C185        C  0.63447415  0.53985787  0.21196015     0.82800
N186        N  0.63036230  0.50840136  0.22685084    -0.79700
C187        C  0.02646842  0.72627132  0.17073536     0.80300
N188        N  0.97937171  0.69656018  0.18013652    -0.78100
C189        C  0.93259311  0.68943260  0.17298197     0.82700
N190        N  0.93328963  0.71202406  0.15628668    -0.78000
C191        C  0.97929479  0.74105277  0.14666715     0.82800
N192        N  0.02584671  0.74818093  0.15396587    -0.79700
C193        C  0.91496719  0.26337769  0.99448204     0.80300
N194        N  0.88389784  0.26140621  0.97977213    -0.78100
C195        C  0.87939834  0.30501155  0.97523033     0.82700
N196        N  0.90656423  0.35060630  0.98543223    -0.78000
C197        C  0.93748399  0.35316184  0.00014320     0.82800
N198        N  0.94158506  0.30946479  0.00457662    -0.79700
C199        C  0.09246647  0.64857515  0.04197825     0.80300
N200        N  0.06642711  0.60207366  0.03205073    -0.78100
C201        C  0.06543974  0.55678267  0.03798627     0.82700
N202        N  0.09054099  0.55809651  0.05418768    -0.78000
C203        C  0.11695221  0.60395323  0.06430450     0.82800
N204        N  0.11732968  0.64895500  0.05818144    -0.79700
C205        C  0.34356466  0.38764826  0.83819516     0.80300
N206        N  0.34350348  0.41369947  0.82231426    -0.78100
C207        C  0.29977343  0.41670951  0.81705406     0.82700
N208        N  0.25497269  0.39252789  0.82791109    -0.78000
C209        C  0.25400542  0.36603589  0.84385097     0.82800
N210        N  0.29829240  0.36339500  0.84877193    -0.79700
C211        C  0.99584703  0.17265016  0.90404151     0.80300
N212        N  0.95190531  0.17175811  0.89665243    -0.78100
C213        C  0.95644992  0.19982931  0.88073577     0.82700
N214        N  0.00530005  0.22920773  0.87255302    -0.78000
C215        C  0.04915210  0.22990525  0.87969875     0.82800
N216        N  0.04410726  0.20155225  0.89541309    -0.79700
O217        O  0.70694126  0.23558212  0.80629489    -0.80100
O218        O  0.48121837  0.20307832  0.87235861    -0.81700
O219        O  0.56465185  0.11687178  0.84135937    -0.78700
O220        O  0.53381288  0.22285239  0.80918270    -0.77100
O221        O  0.57323679  0.31423779  0.80834436    -0.78800
O222        O  0.61574059  0.12381909  0.86666578    -0.79800
O223        O  0.48742289  0.16037390  0.84636637    -0.81100
O224        O  0.61604964  0.18309666  0.80670657    -0.81400
Eu225      Eu  0.57980662  0.20572384  0.83433816     2.39200
O226        O  0.56923837  0.27698146  0.84490361    -0.88900
O227        O  0.66196106  0.21543130  0.84424208    -0.92500
C228        C  0.66254357  0.19843261  0.79938016     1.02200
C229        C  0.46122681  0.16469411  0.86031475     1.02000
C230        C  0.58276879  0.09675007  0.85335904     1.01900
C231        C  0.53996747  0.26677910  0.80223019     0.99800
H232        H  0.55452016  0.17361370  0.87212068     0.29600
O233        O  0.58230563  0.20741939  0.86718228    -1.01300
H234        H  0.64774778  0.28622110  0.80863667     0.29600
O235        O  0.64891124  0.28691001  0.82214517    -1.03800
O236        O  0.59620053  0.34198652  0.90395877    -0.81100
O237        O  0.81940111  0.37290270  0.83846781    -0.80600
O238        O  0.60607040  0.18352506  0.90498656    -0.79000
O239        O  0.56194180  0.37007936  0.83960798    -0.82400
O240        O  0.70113146  0.39702117  0.80650197    -0.80200
O241        O  0.74137044  0.20657852  0.86939472    -0.78900
O242        O  0.76505594  0.34736831  0.90270882    -0.80400
O243        O  0.73537315  0.45860022  0.86784653    -0.82300
O244        O  0.72982323  0.25616741  0.90266318    -0.79100
O245        O  0.68441815  0.45313749  0.84259421    -0.81700
O246        O  0.55176320  0.22035135  0.90487581    -0.77500
O247        O  0.78226544  0.25533019  0.84307530    -0.77500
O248        O  0.75321092  0.35782030  0.80568383    -0.77100
O249        O  0.51998621  0.32208837  0.86584822    -0.80600
O250        O  0.68766205  0.39295152  0.90386294    -0.80100
O251        O  0.81571230  0.41722629  0.86441885    -0.78400
Eu252      Eu  0.57083172  0.27897942  0.87764717     2.39800
Eu253      Eu  0.73077927  0.29758723  0.83261365     2.39600
Eu254      Eu  0.66463232  0.21825396  0.87716787     2.38400
Eu255      Eu  0.63897070  0.35830400  0.83324673     2.39900
Eu256      Eu  0.72339083  0.37071785  0.87643651     2.39800
O257        O  0.72094871  0.36914513  0.84358571    -0.92800
O258        O  0.65318321  0.28934374  0.88782818    -0.91700
C259        C  0.64117291  0.37816117  0.91095804     1.02400
C260        C  0.84065311  0.41145659  0.85036927     1.01100
C261        C  0.56838657  0.19009098  0.91199150     1.00500
C262        C  0.52348512  0.35183863  0.85166700     1.02500
C263        C  0.73846167  0.39027926  0.79927015     1.01400
C264        C  0.77929677  0.22557468  0.85706980     1.00200
C265        C  0.76132693  0.30352327  0.90921508     1.00300
C266        C  0.71658186  0.47919950  0.85612193     1.02900
H267        H  0.76830372  0.30681145  0.86965757     0.30300
O268        O  0.73374158  0.30009811  0.86543297    -1.05000
H269        H  0.63521751  0.38864222  0.87080065     0.32300
O270        O  0.64080298  0.36026709  0.86622572    -1.07500
O271        O  0.90965681  0.84152808  0.97491741    -0.80100
O272        O  0.95308244  0.07881275  0.03243699    -0.81700
O273        O  0.81776635  0.90814175  0.01463665    -0.78700
O274        O  0.94310493  0.01567102  0.97545693    -0.77100
O275        O  0.03436216  0.05434411  0.97438156    -0.78800
O276        O  0.81465516  0.86139221  0.04084377    -0.79800
O277        O  0.89975672  0.03345491  0.00754508    -0.81100
O278        O  0.86965014  0.89279990  0.97599406    -0.81400
Eu279      Eu  0.90964832  0.95499186  0.00235273     2.39200
O280        O  0.99206075  0.02704576  0.01208995    -0.88900
O281        O  0.90116889  0.87397431  0.01294590    -0.92500
C282        C  0.87726113  0.85635727  0.96852056     1.02200
C283        C  0.92212039  0.07424596  0.01857709     1.02000
C284        C  0.79293282  0.87814185  0.02885069     1.01900
C285        C  0.98932305  0.04746353  0.96818223     0.99800
H286        H  0.88514937  0.96315022  0.04049902     0.29600
O287        O  0.91266125  0.95721173  0.03531594    -1.01300
H288        H  0.97886772  0.94487563  0.97682200     0.29600
O289        O  0.98015418  0.94511345  0.99032789    -1.03800
O290        O  0.05967157  0.05354640  0.07036373    -0.81100
O291        O  0.01987165  0.81704966  0.01067514    -0.80600
O292        O  0.88758327  0.91025047  0.07403384    -0.79000
O293        O  0.11263359  0.11220675  0.01052395    -0.82400
O294        O  0.08264527  0.97884221  0.97327609    -0.80200
O295        O  0.85447662  0.78228623  0.03520892    -0.78900
O296        O  0.02595173  0.88180430  0.07133693    -0.80400
O297        O  0.14976597  0.98275099  0.03084197    -0.82300
O298        O  0.93468670  0.84139232  0.07210116    -0.79100
O299        O  0.15163204  0.02992410  0.00487088    -0.81700
O300        O  0.93842931  0.00174359  0.07320165    -0.77500
O301        O  0.89423457  0.77610926  0.00840624    -0.77500
O302        O  0.03184594  0.88739818  0.97398611    -0.77100
O303        O  0.07101833  0.11698308  0.03701956    -0.80600
O304        O  0.09980246  0.00237497  0.06988897    -0.80100
O305        O  0.07140430  0.86138556  0.03596359    -0.78400
Eu306      Eu  0.99564590  0.02854208  0.04477318     2.39800
Eu307      Eu  0.97174331  0.86400204  0.00114444     2.39600
Eu308      Eu  0.90513005  0.87567274  0.04571934     2.38400
Eu309      Eu  0.06239983  0.01753187  0.00019626     2.39900
Eu310      Eu  0.05833891  0.93757730  0.04358848     2.39800
O311        O  0.05412495  0.93637057  0.01081575    -0.92800
O312        O  0.98774417  0.94770729  0.05507528    -0.91700
C313        C  0.09276817  0.03991573  0.07693539     1.02400
C314        C  0.05284964  0.82271894  0.02389926     1.01100
C315        C  0.90413655  0.95694814  0.08111806     1.00500
C316        C  0.10881835  0.13797674  0.02471579     1.02500
C317        C  0.06811512  0.93189002  0.96663353     1.01400
C318        C  0.85701337  0.75622644  0.02094486     1.00200
C319        C  0.98011998  0.85061628  0.07885096     1.00300
C320        C  0.17356230  0.01255909  0.01648884     1.02900
H321        H  0.96996536  0.83073141  0.03864812     0.30300
O322        O  0.97503799  0.86449721  0.03404383    -1.05000
H323        H  0.10092316  0.04674296  0.03713127     0.32300
O324        O  0.06647617  0.01827005  0.03299457    -1.07500
O325        O  0.73442318  0.40740909  0.40433354    -0.80100
O326        O  0.69653311  0.16511941  0.34829193    -0.81700
O327        O  0.69155042  0.22753106  0.40676576    -0.78700
O328        O  0.82388878  0.32724118  0.36913422    -0.77100
O329        O  0.82991240  0.37455746  0.34275047    -0.78800
O330        O  0.60044076  0.18762763  0.40579687    -0.79800
O331        O  0.74334656  0.20930373  0.37440155    -0.81100
O332        O  0.76777349  0.35010668  0.40556221    -0.81400
Eu333      Eu  0.73079523  0.28632030  0.37952393     2.39200
O334        O  0.73276999  0.28523570  0.34670199    -0.88900
O335        O  0.66079484  0.29934600  0.38938116    -0.92500
C336        C  0.76329467  0.38977780  0.41179517     1.02200
C337        C  0.72586181  0.17007915  0.36268564     1.02000
C338        C  0.64441167  0.19516660  0.41331288     1.01900
C339        C  0.84984964  0.35645799  0.35497618     0.99800
H340        H  0.64302163  0.18068775  0.37364885     0.29600
O341        O  0.64962516  0.21459352  0.36863038    -1.01300
H342        H  0.77805269  0.39692934  0.37205094     0.29600
O343        O  0.74393852  0.36844643  0.36764941    -1.03800
O344        O  0.59449670  0.18913657  0.30813716    -0.81100
O345        O  0.62753342  0.42812505  0.36497261    -0.80600
O346        O  0.53204832  0.13365907  0.36760697    -0.79000
O347        O  0.77062665  0.32753778  0.30933948    -0.82400
O348        O  0.78991974  0.46103862  0.34432680    -0.80200
O349        O  0.55999888  0.26594083  0.40562954    -0.78900
O350        O  0.49885411  0.26553227  0.34570602    -0.80400
O351        O  0.62824454  0.36290848  0.30700240    -0.82300
O352        O  0.49170687  0.21731434  0.37209740    -0.79100
O353        O  0.71932561  0.40179012  0.30718843    -0.81700
O354        O  0.57609065  0.12522288  0.34240369    -0.77500
O355        O  0.61333104  0.35752055  0.40530415    -0.77500
O356        O  0.74755844  0.47108909  0.36980126    -0.77100
O357        O  0.71924862  0.23619128  0.31061033    -0.80600
O358        O  0.55381315  0.23992052  0.30856948    -0.80100
O359        O  0.58090311  0.38388473  0.33883413    -0.78400
Eu360      Eu  0.65251189  0.21338591  0.33574107     2.39800
Eu361      Eu  0.67325711  0.38142402  0.37770713     2.39600
Eu362      Eu  0.57962263  0.22723302  0.37865625     2.38400
Eu363      Eu  0.74362600  0.36615469  0.33471585     2.39900
Eu364      Eu  0.59159118  0.30550185  0.33433719     2.39800
O365        O  0.67300430  0.37776475  0.34488449    -0.92800
O366        O  0.58029648  0.22412286  0.34579459    -0.91700
C367        C  0.56191434  0.20328603  0.30142356     1.02400
C368        C  0.59813053  0.42306575  0.35056370     1.01100
C369        C  0.53715777  0.10631586  0.35421133     1.00500
C370        C  0.75737684  0.28004437  0.30348398     1.02500
C371        C  0.78532028  0.48938392  0.35746784     1.01400
C372        C  0.57623595  0.31297771  0.41248859     1.00200
C373        C  0.47288298  0.23690727  0.36003301     1.00300
C374        C  0.67489406  0.39408807  0.29997917     1.02900
H375        H  0.56444914  0.31665381  0.37171186     0.30300
O376        O  0.59187129  0.30959519  0.36721673    -1.05000
H377        H  0.66335250  0.29339366  0.31038176     0.32300
O378        O  0.66271369  0.29419830  0.32388579    -1.07500
O379        O  0.40040153  0.79077256  0.70629714    -0.80100
O380        O  0.36388522  0.56099038  0.64153327    -0.81700
O381        O  0.48557178  0.70368472  0.67509811    -0.78700
O382        O  0.37410907  0.72613863  0.64087936    -0.77100
O383        O  0.28306762  0.68903752  0.64080063    -0.78800
O384        O  0.47902969  0.65401726  0.70099916    -0.79800
O385        O  0.41713912  0.65238225  0.64196128    -0.81100
O386        O  0.44237014  0.78363619  0.68027842    -0.81400
Eu387      Eu  0.39644303  0.69061484  0.66877870     2.39200
O388        O  0.31539671  0.61959102  0.65773859    -0.88900
O389        O  0.39666195  0.69079829  0.70161852    -0.92500
C390        C  0.43834326  0.81050458  0.69407138     1.02200
C391        C  0.40150216  0.60579753  0.63479617     1.02000
C392        C  0.50502151  0.68441005  0.68703164     1.01900
C393        C  0.33000016  0.71885058  0.63356666     0.99800
H394        H  0.41335780  0.60176575  0.67466025     0.29600
O395        O  0.38568022  0.60809945  0.67941658    -1.01300
H396        H  0.33186022  0.73658543  0.67487619     0.29600
O397        O  0.32639112  0.70266645  0.67948998    -1.03800
O398        O  0.23019681  0.44805443  0.67693685    -0.81100
O399        O  0.26227419  0.67553578  0.73893731    -0.80600
O400        O  0.39422121  0.52953071  0.70588499    -0.79000
O401        O  0.20585400  0.56716273  0.64231185    -0.82400
O402        O  0.22794150  0.70370745  0.67573155    -0.80200
O403        O  0.42530948  0.67173184  0.73887907    -0.78900
O404        O  0.26203269  0.51093732  0.73884142    -0.80400
O405        O  0.14445710  0.53488085  0.70609438    -0.82300
O406        O  0.35308128  0.54771161  0.73883596    -0.79100
O407        O  0.15325452  0.58584742  0.68025102    -0.81700
O408        O  0.34635789  0.48792928  0.67959265    -0.77500
O409        O  0.38644864  0.72399767  0.73917279    -0.77500
O410        O  0.27463239  0.74501268  0.70219676    -0.77100
O411        O  0.24232972  0.51263933  0.64249827    -0.80600
O412        O  0.18799418  0.45286849  0.70323668    -0.80100
O413        O  0.20898013  0.58408731  0.73909177    -0.78400
Eu414      Eu  0.30351569  0.53762547  0.66874855     2.39800
Eu415      Eu  0.32514959  0.70092849  0.71250424     2.39600
Eu416      Eu  0.38634365  0.60905009  0.71232104     2.38400
Eu417      Eu  0.24516406  0.63067237  0.66847065     2.39900
Eu418      Eu  0.23374897  0.54761677  0.71260628     2.39800
O419        O  0.24489425  0.62941782  0.70134070    -0.92800
O420        O  0.30463156  0.53796351  0.70151125    -0.91700
C421        C  0.19357759  0.42659060  0.68963684     1.02400
C422        C  0.22430387  0.63113022  0.74578969     1.01100
C423        C  0.37515334  0.49101346  0.69380791     1.00500
C424        C  0.21136551  0.52845695  0.63566167     1.02500
C425        C  0.24306019  0.74002331  0.68851002     1.01400
C426        C  0.41848730  0.70918412  0.74597840     1.00200
C427        C  0.30615835  0.51648452  0.74562701     1.00300
C428        C  0.12635258  0.55531865  0.69407204     1.02900
H429        H  0.31531179  0.61918277  0.73708774     0.30300
O430        O  0.31517223  0.61927974  0.72357597    -1.05000
H431        H  0.19834761  0.51951925  0.67521707     0.32300
O432        O  0.23239808  0.54814597  0.67962591    -1.07500
O433        O  0.29089092  0.51900070  0.14088012    -0.80100
O434        O  0.49327208  0.75396786  0.19916645    -0.81700
O435        O  0.42319465  0.68784813  0.13840668    -0.78700
O436        O  0.45524102  0.59040728  0.17804588    -0.77100
O437        O  0.41298262  0.53944705  0.20379528    -0.78800
O438        O  0.37141525  0.72742919  0.13954445    -0.79800
O439        O  0.49654662  0.70973871  0.17310088    -0.81100
O440        O  0.38234581  0.56907719  0.14106737    -0.81400
Eu441      Eu  0.40655184  0.63479676  0.16668682     2.39200
O442        O  0.40859828  0.63591708  0.19945292    -0.88900
O443        O  0.32458558  0.62486599  0.15658625    -0.92500
C444        C  0.33746377  0.53201308  0.13423593     1.02200
C445        C  0.51846560  0.74788827  0.18523720     1.02000
C446        C  0.40629656  0.71809206  0.13163429     1.01900
C447        C  0.45118515  0.55909179  0.19168710     0.99800
H448        H  0.42495116  0.74127187  0.17235360     0.29600
O449        O  0.39694512  0.70755743  0.17728794    -1.01300
H450        H  0.34244173  0.52505888  0.17324605     0.29600
O451        O  0.33684005  0.55337666  0.17788098    -1.03800
O452        O  0.36448134  0.73214836  0.23761655    -0.81100
O453        O  0.16276604  0.49349798  0.17966718    -0.80600
O454        O  0.35911293  0.79045735  0.17767821    -0.79000
O455        O  0.40182631  0.59142845  0.23650594    -0.82400
O456        O  0.29078731  0.45916886  0.20002127    -0.80200
O457        O  0.25054145  0.65870042  0.14154596    -0.78900
O458        O  0.19934333  0.66353108  0.20263900    -0.80400
O459        O  0.22799417  0.55555821  0.23874092    -0.82300
O460        O  0.24024220  0.71155986  0.17631680    -0.79100
O461        O  0.28054117  0.51683461  0.23821622    -0.81700
O462        O  0.40849822  0.79632064  0.20339477    -0.77500
O463        O  0.21541165  0.56768141  0.14149574    -0.77500
O464        O  0.24130992  0.45443723  0.17435968    -0.77100
O465        O  0.43826577  0.68272333  0.23632520    -0.80600
O466        O  0.27348033  0.67870225  0.23828573    -0.80100
O467        O  0.15720789  0.53522681  0.20605705    -0.78400
Eu468      Eu  0.39938765  0.70801810  0.21023154     2.39800
Eu469      Eu  0.25464570  0.54343192  0.16776303     2.39600
Eu470      Eu  0.31368083  0.69576846  0.16757637     2.38400
Eu471      Eu  0.33822434  0.55375436  0.21069235     2.39900
Eu472      Eu  0.24615929  0.61484697  0.21185022     2.39800
O473        O  0.25610213  0.54338232  0.20063925    -0.92800
O474        O  0.31652522  0.69611879  0.20034711    -0.91700
C475        C  0.31808916  0.71687921  0.24493768     1.02400
C476        C  0.13715753  0.49653435  0.19400323     1.01100
C477        C  0.38979730  0.81677065  0.19154211     1.00500
C478        C  0.43301126  0.63869200  0.24313575     1.02500
C479        C  0.25957066  0.43365999  0.18613825     1.01400
C480        C  0.21998328  0.61148415  0.13474143     1.00200
C481        C  0.20382002  0.69546793  0.18914583     1.00300
C482        C  0.24387682  0.52427483  0.24547243     1.02900
H483        H  0.20868467  0.60784688  0.17479134     0.30300
O484        O  0.24302775  0.61368651  0.17893520    -1.05000
H485        H  0.33027765  0.62658069  0.23517071     0.32300
O486        O  0.32899145  0.62601353  0.22167011    -1.07500
O487        O  0.02985786  0.06674284  0.57178349    -0.80100
O488        O  0.83059947  0.82579343  0.51271219    -0.81700
O489        O  0.86417657  0.99434386  0.53475598    -0.78700
O490        O  0.88877915  0.88799364  0.57234150    -0.77100
O491        O  0.94082583  0.84868395  0.57257341    -0.78800
O492        O  0.90873901  0.04185589  0.50867555    -0.79800
O493        O  0.82525749  0.86870899  0.53879599    -0.81100
O494        O  0.93860787  0.01276928  0.57167169    -0.81400
Eu495      Eu  0.91267557  0.94857727  0.54551986     2.39200
O496        O  0.92275907  0.87669585  0.53499651    -0.88900
O497        O  0.98492362  0.02961409  0.53464622    -0.92500
C498        C  0.98277044  0.05120492  0.57848077     1.02200
C499        C  0.80498519  0.82980508  0.52682266     1.02000
C500        C  0.86985293  0.02469931  0.52057028     1.01900
C501        C  0.90322952  0.85580142  0.57926113     0.99800
H502        H  0.87810677  0.94098678  0.50787737     0.29600
O503        O  0.91218552  0.94694565  0.51263746    -1.01300
H504        H  0.99396499  0.95941993  0.57012116     0.29600
O505        O  0.99433631  0.95912771  0.55647704    -1.03800
O506        O  0.95936800  0.85155169  0.47554296    -0.81100
O507        O  0.16053601  0.08753550  0.53402526    -0.80600
O508        O  0.92658287  0.99221638  0.47470273    -0.79000
O509        O  0.95690193  0.79212405  0.53566215    -0.82400
O510        O  0.06240891  0.92391588  0.57305416    -0.80200
O511        O  0.03011237  0.12240446  0.51207811    -0.78900
O512        O  0.09902502  0.02509751  0.47461843    -0.80400
O513        O  0.11950909  0.91733343  0.51334577    -0.82300
O514        O  0.04763086  0.06506960  0.47534882    -0.79100
O515        O  0.07724426  0.86966007  0.53958391    -0.81700
O516        O  0.88735512  0.90097221  0.47512537    -0.77500
O517        O  0.07851966  0.12983397  0.53826332    -0.77500
O518        O  0.10231696  0.01535083  0.57299089    -0.77100
O519        O  0.91044846  0.78757489  0.50916596    -0.80600
O520        O  0.05051283  0.90346032  0.47565063    -0.80100
O521        O  0.16542297  0.04274282  0.50841877    -0.78400
Eu522      Eu  0.92363502  0.87624836  0.50214457     2.39800
Eu523      Eu  0.06686948  0.04064656  0.54559312     2.39600
Eu524      Eu  0.98460658  0.02845699  0.50186908     2.38400
Eu525      Eu  0.00368699  0.88662994  0.54607145     2.39900
Eu526      Eu  0.07589371  0.96695989  0.50214500     2.39800
O527        O  0.07641392  0.96815891  0.53513575    -0.92800
O528        O  0.99496191  0.95720876  0.49107086    -0.91700
C529        C  0.00596404  0.86595928  0.46872327     1.02400
C530        C  0.18627082  0.08215223  0.52009138     1.01100
C531        C  0.89500616  0.94536829  0.46784418     1.00500
C532        C  0.92726235  0.76674505  0.52146361     1.02500
C533        C  0.09372025  0.97043572  0.58020877     1.01400
C534        C  0.06054274  0.14954147  0.52584187     1.00200
C535        C  0.08432820  0.05743603  0.46805048     1.00300
C536        C  0.11429156  0.88571188  0.52705412     1.02900
H537        H  0.09414548  0.07313902  0.50787062     0.30300
O538        O  0.06590329  0.03916393  0.51271278    -1.05000
H539        H  0.01052415  0.85725147  0.50863312     0.32300
O540        O  0.00485210  0.88618166  0.51319677    -1.07500
C541        C  0.02606322  0.11867807  0.92138151    -0.12200
C542        C  0.99204368  0.14034648  0.92067185     0.04800
C543        C  0.95672442  0.13095547  0.93578194    -0.07500
C544        C  0.95597712  0.09993365  0.95102638    -0.08300
C545        C  0.99041332  0.07867875  0.95166522    -0.02800
C546        C  0.02556639  0.08819573  0.93660469     0.04000
N547        N  0.05919113  0.06500857  0.93604428     0.66500
H548        H  0.05280595  0.12454719  0.90981884     0.15400
H549        H  0.92933825  0.09368777  0.96267581     0.15100
N550        N  0.92366766  0.15484125  0.93648429     0.74200
O551        O  0.04137130  0.01910758  0.92887109    -0.39200
O552        O  0.10904387  0.09492901  0.93811774    -0.39200
O553        O  0.87383792  0.12541164  0.93426386    -0.39900
O554        O  0.94122365  0.19959891  0.94452153    -0.40000
C555        C  0.91990156  0.24872428  0.86315517    -0.12200
C556        C  0.91003642  0.20222643  0.87287150     0.04800
C557        C  0.85646682  0.16062403  0.87519118    -0.07500
C558        C  0.81434030  0.16776189  0.86900011    -0.08300
C559        C  0.82430487  0.21551809  0.86021097    -0.02800
C560        C  0.87796017  0.25574996  0.85686429     0.04000
N561        N  0.89094658  0.30612336  0.84868384     0.66500
H562        H  0.96059362  0.28129142  0.86114455     0.15400
H563        H  0.77346395  0.13606941  0.87142516     0.15100
N564        N  0.84392307  0.11029996  0.88327502     0.74200
O565        O  0.90133505  0.34532430  0.85922991    -0.39200
O566        O  0.90521575  0.31475040  0.83175624    -0.39200
O567        O  0.82346223  0.09859131  0.89940602    -0.39900
O568        O  0.83964024  0.07322754  0.87270709    -0.40000
C569        C  0.26594682  0.48248877  0.77671993    -0.12200
C570        C  0.30298224  0.48746760  0.76312080     0.04800
C571        C  0.33817148  0.46809835  0.76715089    -0.07500
C572        C  0.33648908  0.44570638  0.78475198    -0.08300
C573        C  0.30013102  0.44186773  0.79869415    -0.02800
C574        C  0.26422352  0.46035447  0.79431644     0.04000
N575        N  0.22683483  0.45924611  0.80761297     0.66500
H576        H  0.23921235  0.49793709  0.77395787     0.15400
H577        H  0.36342422  0.43043979  0.78734957     0.15100
N578        N  0.37370442  0.46797825  0.75323388     0.74200
O579        O  0.24369797  0.49387630  0.82049150    -0.39200
O580        O  0.17804427  0.43659227  0.80308855    -0.39200
O581        O  0.42242597  0.50404627  0.75348777    -0.39900
O582        O  0.35956962  0.42580395  0.74387072    -0.40000
C583        C  0.42691113  0.38875871  0.82810759    -0.12200
C584        C  0.39097974  0.38142461  0.84260045     0.04800
C585        C  0.40052408  0.36652982  0.86045857    -0.07500
C586        C  0.44409700  0.35804448  0.86322283    -0.08300
C587        C  0.47949588  0.36450487  0.84856439    -0.02800
C588        C  0.47033939  0.38055194  0.83081804     0.04000
N589        N  0.50236214  0.38535415  0.81488313     0.66500
H590        H  0.42060160  0.39953543  0.81419954     0.15400
H591        H  0.45019929  0.34636766  0.87700610     0.15100
N592        N  0.36746544  0.36126115  0.87612599     0.74200
O593        O  0.48405823  0.34804370  0.80296885    -0.39200
O594        O  0.54024505  0.43106059  0.81028086    -0.39200
O595        O  0.33306564  0.31505715  0.88175191    -0.39900
O596        O  0.38066653  0.40122026  0.88662500    -0.40000
C597        C  0.11365942  0.31399703  0.86371157    -0.12200
C598        C  0.10235541  0.26439882  0.87110343     0.04800
C599        C  0.14221335  0.24970158  0.87035466    -0.07500
C600        C  0.19199263  0.28450651  0.86213828    -0.08300
C601        C  0.20305746  0.33394111  0.85436409    -0.02800
C602        C  0.16323545  0.34880472  0.85549079     0.04000
N603        N  0.17239620  0.39955866  0.84891960     0.66500
H604        H  0.08394721  0.32645433  0.86461593     0.15400
H605        H  0.22128485  0.27154799  0.86111541     0.15100
N606        N  0.13157434  0.19806695  0.87654823     0.74200
O607        O  0.13900750  0.40057951  0.83779355    -0.39200
O608        O  0.20238775  0.44109925  0.85829746    -0.39200
O609        O  0.11226455  0.15937651  0.86515448    -0.39900
O610        O  0.15256610  0.19422138  0.89151324    -0.40000
C611        C  0.17997017  0.56726615  0.10445132    -0.12200
C612        C  0.18974941  0.60758137  0.11749777     0.04800
C613        C  0.17375926  0.64537322  0.11314070    -0.07500
C614        C  0.15030326  0.64327849  0.09581890    -0.08300
C615        C  0.14216248  0.60413435  0.08245833    -0.02800
C616        C  0.15681803  0.56532224  0.08705148     0.04000
N617        N  0.15130963  0.52533876  0.07394326     0.66500
H618        H  0.19251858  0.53827095  0.10740863     0.15400
H619        H  0.13777341  0.67228436  0.09296243     0.15100
N620        N  0.17909713  0.68497443  0.12637174     0.74200
O621        O  0.18640860  0.53759795  0.06140918    -0.39200
O622        O  0.11907662  0.47647160  0.07738882    -0.39200
O623        O  0.21521483  0.73323043  0.12403401    -0.39900
O624        O  0.14069652  0.67431896  0.13732226    -0.40000
C625        C  0.05251915  0.68981032  0.02167557    -0.12200
C626        C  0.08880383  0.69637478  0.03593536     0.04800
C627        C  0.11775244  0.74732000  0.04460068    -0.07500
C628        C  0.10723875  0.78842863  0.03978860    -0.08300
C629        C  0.06844368  0.78067513  0.02629815    -0.02800
C630        C  0.04225106  0.73086475  0.01678274     0.04000
N631        N  0.00269870  0.71958991  0.00280713     0.66500
H632        H  0.03001815  0.65165044  0.01456859     0.15400
H633        H  0.12902736  0.82642881  0.04707162     0.15100
N634        N  0.15787825  0.75840118  0.05835852     0.74200
O635        O  0.01623131  0.72580313  0.98579549    -0.39200
O636        O  0.95391921  0.69079872  0.00704416    -0.39200
O637        O  0.20601248  0.77825327  0.05325271    -0.39900
O638        O  0.14754658  0.76059233  0.07539229    -0.40000
C639        C  0.87284378  0.16373338  0.99742771    -0.12200
C640        C  0.91760926  0.21496750  0.00018660     0.04800
C641        C  0.96293996  0.21896561  0.00931491    -0.07500
C642        C  0.96154236  0.17283634  0.01632132    -0.08300
C643        C  0.91677707  0.12159809  0.01368106    -0.02800
C644        C  0.87226182  0.11730166  0.00382918     0.04000
N645        N  0.82586722  0.06627909  0.00033850     0.66500
H646        H  0.83769549  0.15957804  0.99041088     0.15400
H647        H  0.99735682  0.17699827  0.02282551     0.15100
N648        N  0.01252117  0.26862240  0.01004765     0.74200
O649        O  0.78642047  0.04916869  0.01133673    -0.39200
O650        O  0.81958140  0.04501681  0.98440516    -0.39200
O651        O  0.03156227  0.28952739  0.02573431    -0.39900
O652        O  0.04320090  0.28281580  0.99600573    -0.40000
C653        C  0.84781670  0.27621868  0.94257049    -0.12200
C654        C  0.84810373  0.30444332  0.95859499     0.04800
C655        C  0.82130172  0.33434974  0.95795377    -0.07500
C656        C  0.79525905  0.33556160  0.94150806    -0.08300
C657        C  0.79452285  0.30676117  0.92558701    -0.02800
C658        C  0.82166164  0.27731849  0.92619881     0.04000
N659        N  0.82566916  0.25070801  0.90996016     0.66500
H660        H  0.86926512  0.25424497  0.94254790     0.15400
H661        H  0.77361716  0.35733828  0.94145285     0.15100
N662        N  0.81710977  0.36087619  0.97422323     0.74200
O663        O  0.86487721  0.27605432  0.89905012    -0.39200
O664        O  0.79926921  0.20012735  0.90924181    -0.39200
O665        O  0.84217814  0.41149298  0.97486116    -0.39900
O666        O  0.78020757  0.33462426  0.98589573    -0.40000
C667        C  0.98757429  0.45271060  0.00030075    -0.12200
C668        C  0.96916108  0.40457707  0.01026736     0.04800
C669        C  0.98296305  0.40700705  0.02933063    -0.07500
C670        C  0.01500139  0.45688020  0.03787051    -0.08300
C671        C  0.03364713  0.50512682  0.02789174    -0.02800
C672        C  0.01968668  0.50256466  0.00881487     0.04000
N673        N  0.03962962  0.54980991  0.99756838     0.66500
H674        H  0.97825847  0.45176305  0.98556769     0.15400
H675        H  0.02408119  0.45766523  0.05261507     0.15100
N676        N  0.96275424  0.35963087  0.04053367     0.74200
O677        O  0.08492252  0.56852578  0.98988926    -0.39200
O678        O  0.00766903  0.56450011  0.99177885    -0.39200
O679        O  0.99511445  0.34704490  0.04749994    -0.39900
O680        O  0.91611711  0.33920190  0.04724320    -0.40000
C681        C  0.07416241  0.69999174  0.19370400    -0.12200
C682        C  0.07665571  0.72938778  0.17773054     0.04800
C683        C  0.12603898  0.75704199  0.16805826    -0.07500
C684        C  0.16765189  0.74721718  0.17252645    -0.08300
C685        C  0.16280371  0.71257630  0.18726034    -0.02800
C686        C  0.11681738  0.69258571  0.19879595     0.04000
N687        N  0.11152314  0.66351704  0.21553668     0.66500
H688        H  0.03811274  0.68084423  0.20211929     0.15400
H689        H  0.20350601  0.76608248  0.16401737     0.15100
N690        N  0.13548606  0.79634143  0.15407724     0.74200
O691        O  0.10687108  0.68232577  0.23090977    -0.39200
O692        O  0.09521124  0.61410579  0.21438233    -0.39200
O693        O  0.15357203  0.84450653  0.15899502    -0.39900
O694        O  0.13785819  0.78585198  0.13707762    -0.40000
C695        C  0.02455617  0.81525130  0.12406300    -0.12200
C696        C  0.97895210  0.76685216  0.12887204     0.04800
C697        C  0.93333313  0.74619556  0.11716158    -0.07500
C698        C  0.93417072  0.77466828  0.10119079    -0.08300
C699        C  0.97998409  0.82311921  0.09635491    -0.02800
C700        C  0.02551154  0.84342771  0.10808684     0.04000
N701        N  0.07293486  0.89325308  0.10431492     0.66500
H702        H  0.05957364  0.83226597  0.13300721     0.15400
H703        H  0.89918918  0.75782206  0.09223546     0.15100
N704        N  0.88682197  0.69519872  0.12064587     0.74200
O705        O  0.07799430  0.93583807  0.11128631    -0.39200
O706        O  0.11374319  0.89278444  0.09820699    -0.39200
O707        O  0.84257677  0.69277089  0.12371488    -0.39900
O708        O  0.88724731  0.65303985  0.11610646    -0.40000
C709        C  0.71965319  0.49486170  0.25991998    -0.12200
C710        C  0.67218328  0.47506061  0.24949571     0.04800
C711        C  0.62621958  0.42790031  0.25553637    -0.07500
C712        C  0.62865156  0.40177763  0.27170151    -0.08300
C713        C  0.67602325  0.42203588  0.28234768    -0.02800
C714        C  0.72202674  0.46908900  0.27614574     0.04000
N715        N  0.77127433  0.49214960  0.28626308     0.66500
H716        H  0.75541330  0.53128661  0.25559099     0.15400
H717        H  0.59285239  0.36528532  0.27594540     0.15100
N718        N  0.57740687  0.40473001  0.24513000     0.74200
O719        O  0.80677664  0.48117872  0.28141478    -0.39200
O720        O  0.78383404  0.53194982  0.29677619    -0.39200
O721        O  0.56649146  0.36623266  0.23415634    -0.39900
O722        O  0.54053154  0.41340686  0.25022863    -0.40000
C723        C  0.53594699  0.50044289  0.20867868    -0.12200
C724        C  0.58771070  0.54444533  0.20604396     0.04800
C725        C  0.59355975  0.59151711  0.19758050    -0.07500
C726        C  0.54827164  0.59321564  0.19172178    -0.08300
C727        C  0.49656669  0.54987786  0.19479085    -0.02800
C728        C  0.49052791  0.50285065  0.20328112     0.04000
N729        N  0.43879339  0.45696758  0.20629640     0.66500
H730        H  0.53058717  0.46379172  0.21495176     0.15400
H731        H  0.55362692  0.63045191  0.18596081     0.15100
N732        N  0.64438057  0.63978956  0.19643908     0.74200
O733        O  0.41888795  0.42107879  0.19387295    -0.39200
O734        O  0.41966587  0.44624339  0.22263759    -0.39200
O735        O  0.66092886  0.66220030  0.18074717    -0.39900
O736        O  0.66435913  0.66694152  0.21111515    -0.40000
C737        C  0.83339953  0.64114925  0.17210175    -0.12200
C738        C  0.88023000  0.65590485  0.18244798     0.04800
C739        C  0.87500717  0.63822817  0.20117746    -0.07500
C740        C  0.82396694  0.60768042  0.20906071    -0.08300
C741        C  0.77737475  0.59383350  0.19868583    -0.02800
C742        C  0.78260567  0.61042590  0.17990449     0.04000
N743        N  0.73705799  0.59463857  0.16817896     0.66500
H744        H  0.83571792  0.65266936  0.15758322     0.15400
H745        H  0.82099669  0.59540703  0.22355536     0.15100
N746        N  0.92060476  0.65132835  0.21256242     0.74200
O747        O  0.72630608  0.62982550  0.16270138    -0.39200
O748        O  0.71805259  0.55096327  0.15931575    -0.39200
O749        O  0.93700890  0.68999249  0.22390503    -0.39900
O750        O  0.93531657  0.61709601  0.21464185    -0.40000
C751        C  0.37098768  0.78225800  0.58496704    -0.12200
C752        C  0.33451767  0.80048725  0.58203840     0.04800
C753        C  0.29671889  0.79139469  0.59629818    -0.07500
C754        C  0.29641662  0.76504916  0.61283066    -0.08300
C755        C  0.33277661  0.74689959  0.61573529    -0.02800
C756        C  0.37009984  0.75528727  0.60146217     0.04000
N757        N  0.40495654  0.73359054  0.60289729     0.66500
H758        H  0.39957253  0.78756694  0.57414113     0.15400
H759        H  0.26787283  0.75945840  0.62365396     0.15100
N760        N  0.25931300  0.80995774  0.59463111     0.74200
O761        O  0.38843109  0.68591221  0.59770829    -0.39200
O762        O  0.45447370  0.76479137  0.60527001    -0.39200
O763        O  0.21047749  0.77627924  0.59200929    -0.39900
O764        O  0.27228034  0.85627001  0.60048377    -0.40000
C765        C  0.19871176  0.82788201  0.54595601    -0.12200
C766        C  0.24596835  0.85630725  0.53533328     0.04800
C767        C  0.24552992  0.88802645  0.52028711    -0.07500
C768        C  0.20102925  0.89420674  0.51729260    -0.08300
C769        C  0.15580768  0.86960096  0.52895076    -0.02800
C770        C  0.15414491  0.83410318  0.54298488     0.04000
N771        N  0.10819754  0.80456887  0.55464179     0.66500
H772        H  0.19636805  0.80134258  0.55709684     0.15400
H773        H  0.20323992  0.92056348  0.50606999     0.15100
N774        N  0.28994032  0.91555244  0.50796505     0.74200
O775        O  0.07376709  0.75722765  0.55012685    -0.39200
O776        O  0.10903909  0.82003831  0.57122191    -0.39200
O777        O  0.28592235  0.89749036  0.49158996    -0.39900
O778        O  0.32294412  0.96441470  0.51107791    -0.40000
C779        C  0.68743546  0.18604911  0.44222122    -0.12200
C780        C  0.64189433  0.16522030  0.43066690     0.04800
C781        C  0.59675384  0.11551026  0.43558752    -0.07500
C782        C  0.59798321  0.08839051  0.45173682    -0.08300
C783        C  0.64411217  0.10867046  0.46295294    -0.02800
C784        C  0.68929655  0.15806880  0.45795218     0.04000
N785        N  0.73741256  0.18091226  0.46872178     0.66500
H786        H  0.72259896  0.22417271  0.43887282     0.15400
H787        H  0.56312653  0.05005750  0.45511366     0.15100
N788        N  0.55074587  0.09007865  0.42375855     0.74200
O789        O  0.77694943  0.17800959  0.46263810    -0.39200
O790        O  0.74470077  0.21458470  0.48133218    -0.39200
O791        O  0.54691427  0.05555596  0.41202079    -0.39900
O792        O  0.50982785  0.09328279  0.42774359    -0.40000
C793        C  0.74601672  0.04016164  0.52391629    -0.12200
C794        C  0.73597652  0.04375279  0.50488773     0.04800
C795        C  0.77220532  0.04463489  0.49141006    -0.07500
C796        C  0.81677827  0.04135375  0.49710692    -0.08300
C797        C  0.82633777  0.03634147  0.51609784    -0.02800
C798        C  0.79077799  0.03673786  0.52962324     0.04000
N799        N  0.80023375  0.03543455  0.54917622     0.66500
H800        H  0.71910032  0.04037561  0.53446695     0.15400
H801        H  0.84253089  0.03978700  0.48636463     0.15100
N802        N  0.76214491  0.04413295  0.47180199     0.74200
O803        O  0.82817789  0.07911763  0.55776085    -0.39200
O804        O  0.77056348  0.99344246  0.55841745    -0.39200
O805        O  0.79147829  0.08533011  0.46215097    -0.39900
O806        O  0.73454574  0.99965900  0.46363824    -0.40000
C807        C  0.49639717  0.96194818  0.50207894    -0.12200
C808        C  0.54290879  0.97960462  0.51277898     0.04800
C809        C  0.53757262  0.96233858  0.53154897    -0.07500
C810        C  0.48643684  0.92877394  0.53912340    -0.08300
C811        C  0.43952149  0.91194732  0.52848759    -0.02800
C812        C  0.44536038  0.92868106  0.50957964     0.04000
N813        N  0.40055378  0.91223248  0.49746002     0.66500
H814        H  0.49947124  0.97356858  0.48750241     0.15400
H815        H  0.48363739  0.91745189  0.55371659     0.15100
N816        N  0.58310214  0.98108292  0.54351666     0.74200
O817        O  0.39563580  0.94801879  0.48901011    -0.39200
O818        O  0.37811073  0.86541035  0.49073959    -0.39200
O819        O  0.59706153  0.02250730  0.55330677    -0.39900
O820        O  0.60064503  0.95005569  0.54759275    -0.40000
C821        C  0.18301893  0.82273960  0.66976632    -0.12200
C822        C  0.20703571  0.86818526  0.68142284     0.04800
C823        C  0.23704347  0.86719973  0.69692095    -0.07500
C824        C  0.24577824  0.82387677  0.69944784    -0.08300
C825        C  0.22531787  0.78053026  0.68687018    -0.02800
C826        C  0.19185044  0.77959050  0.67219830     0.04000
N827        N  0.16807631  0.73650639  0.65902249     0.66500
H828        H  0.15825684  0.82096239  0.65811903     0.15400
H829        H  0.27063897  0.82549058  0.71106418     0.15100
N830        N  0.26019396  0.91000535  0.71012875     0.74200
O831        O  0.12171904  0.69765949  0.66212506    -0.39200
O832        O  0.18669176  0.74386984  0.64262923    -0.39200
O833        O  0.23898596  0.90285411  0.72610607    -0.39900
O834        O  0.30822098  0.94664384  0.70792624    -0.40000
C835        C  0.16086075  0.00980740  0.62813811    -0.12200
C836        C  0.15937846  0.96211154  0.63378035     0.04800
C837        C  0.13911890  0.91875828  0.62102320    -0.07500
C838        C  0.11948710  0.92330852  0.60364343    -0.08300
C839        C  0.11979130  0.97049462  0.59820956    -0.02800
C840        C  0.14174864  0.01446677  0.61064506     0.04000
N841        N  0.14367606  0.06374180  0.60610009     0.66500
H842        H  0.17660481  0.04415201  0.63741092     0.15400
H843        H  0.10347180  0.88902177  0.59436225     0.15100
N844        N  0.13818964  0.86976414  0.62523655     0.74200
O845        O  0.10596105  0.07106658  0.61123791    -0.39200
O846        O  0.18728993  0.10331135  0.60070568    -0.39200
O847        O  0.09427663  0.82867174  0.62944371    -0.39900
O848        O  0.17709631  0.86422175  0.62021900    -0.40000
C849        C  0.42890453  0.45420658  0.70783499    -0.12200
C850        C  0.38475242  0.44581794  0.69713435     0.04800
C851        C  0.34729736  0.39301963  0.69158889    -0.07500
C852        C  0.35463373  0.35046606  0.69667318    -0.08300
C853        C  0.39788229  0.35832346  0.70786020    -0.02800
C854        C  0.43565695  0.41132728  0.71332885     0.04000
N855        N  0.48031718  0.42285213  0.72489413     0.66500
H856        H  0.45751110  0.49413516  0.71263586     0.15400
H857        H  0.32388758  0.31040511  0.69269601     0.15100
N858        N  0.29771171  0.38045451  0.68309977     0.74200
O859        O  0.52394511  0.43366318  0.71717709    -0.39200
O860        O  0.48089476  0.43832107  0.74146545    -0.39200
O861        O  0.29217505  0.37256447  0.66567445    -0.39900
O862        O  0.25667609  0.36249362  0.69335008    -0.40000
C863        C  0.43147641  0.22139287  0.76518115    -0.12200
C864        C  0.45441299  0.26633184  0.75321412     0.04800
C865        C  0.50506473  0.31025791  0.75763514    -0.07500
C866        C  0.53162340  0.30844086  0.77354685    -0.08300
C867        C  0.50890751  0.26409306  0.78556924    -0.02800
C868        C  0.45811569  0.21991745  0.78131945     0.04000
N869        N  0.43226973  0.17429102  0.79341746     0.66500
H870        H  0.39221615  0.18747119  0.76217771     0.15400
H871        H  0.57110556  0.34227501  0.77636030     0.15100
N872        N  0.53169313  0.35640366  0.74588559     0.74200
O873        O  0.39795187  0.17128675  0.80506466    -0.39200
O874        O  0.43460545  0.13268422  0.78963085    -0.39200
O875        O  0.54898793  0.40221892  0.75308142    -0.39900
O876        O  0.55165695  0.35255942  0.73064941    -0.40000
C877        C  0.27234762  0.10601781  0.67887456    -0.12200
C878        C  0.25511272  0.05940035  0.68978728     0.04800
C879        C  0.27052892  0.06538397  0.70877966    -0.07500
C880        C  0.30491419  0.11668184  0.71596997    -0.08300
C881        C  0.32366853  0.16286516  0.70482004    -0.02800
C882        C  0.30597057  0.15716132  0.68614182     0.04000
N883        N  0.32376930  0.20237078  0.67397355     0.66500
H884        H  0.26139403  0.10310070  0.66424743     0.15400
H885        H  0.31631978  0.12034696  0.73057310     0.15100
N886        N  0.25048180  0.02058883  0.72123453     0.74200
O887        O  0.36538503  0.21721536  0.66424077    -0.39200
O888        O  0.29206012  0.21897841  0.66982702    -0.39200
O889        O  0.28313200  0.01440875  0.73116377    -0.39900
O890        O  0.20188797  0.99759822  0.72607234    -0.40000
C891        C  0.76042949  0.07486252  0.38808359    -0.12200
C892        C  0.74835977  0.03531825  0.37450914     0.04800
C893        C  0.73228248  0.04229610  0.35653646    -0.07500
C894        C  0.72689216  0.08719867  0.35281029    -0.08300
C895        C  0.73753849  0.12611926  0.36662044    -0.02800
C896        C  0.75525983  0.11964286  0.38442229     0.04000
N897        N  0.76484873  0.15588950  0.39951373     0.66500
H898        H  0.77220906  0.07026911  0.40204490     0.15400
H899        H  0.71390255  0.09127883  0.33899354     0.15100
N900        N  0.72267945  0.00519969  0.34172201     0.74200
O901        O  0.72824166  0.14399807  0.41139347    -0.39200
O902        O  0.81247355  0.18968058  0.40383132    -0.39200
O903        O  0.67521415  0.97325886  0.33664185    -0.39900
O904        O  0.76092199  0.01286674  0.33113996    -0.40000
C905        C  0.88094024  0.99207736  0.44093234    -0.12200
C906        C  0.86603152  0.94360030  0.45042362     0.04800
C907        C  0.82372194  0.89536581  0.44306553    -0.07500
C908        C  0.79693349  0.89672718  0.42700606    -0.08300
C909        C  0.81158614  0.94511293  0.41766791    -0.02800
C910        C  0.85471846  0.99315305  0.42464724     0.04000
N911        N  0.87350729  0.04315425  0.41512452     0.66500
H912        H  0.91387394  0.02968450  0.44595806     0.15400
H913        H  0.76381148  0.85933226  0.42199525     0.15100
N914        N  0.80661429  0.84456457  0.45173862     0.74200
O915        O  0.86419878  0.07826512  0.42179871    -0.39200
O916        O  0.89783126  0.05154990  0.39970408    -0.39200
O917        O  0.76553904  0.82419056  0.46204177    -0.39900
O918        O  0.82448957  0.81530848  0.44575020    -0.40000
C919        C  0.59575451  0.50518527  0.36075058    -0.12200
C920        C  0.58461627  0.46610818  0.34694761     0.04800
C921        C  0.56315481  0.47080852  0.32965025    -0.07500
C922        C  0.55498664  0.51408830  0.32646703    -0.08300
C923        C  0.56841015  0.55434884  0.33990349    -0.02800
C924        C  0.58793947  0.54885258  0.35743706     0.04000
N925        N  0.59937083  0.58657614  0.37219539     0.66500
H926        H  0.61128922  0.50237167  0.37423713     0.15400
H927        H  0.54049792  0.51738970  0.31282966     0.15100
N928        N  0.55351593  0.43493877  0.31441734     0.74200
O929        O  0.56245754  0.57934749  0.38337826    -0.39200
O930        O  0.64743454  0.61833655  0.37667923    -0.39200
O931        O  0.50594641  0.40327771  0.30939036    -0.39900
O932        O  0.59098168  0.44606261  0.30298972    -0.40000
C933        C  0.50293773  0.60691126  0.28179397    -0.12200
C934        C  0.50903208  0.64450670  0.29547665     0.04800
C935        C  0.49162331  0.68147066  0.29144018    -0.07500
C936        C  0.46915039  0.68021680  0.27397553    -0.08300
C937        C  0.46262862  0.64223188  0.26041769    -0.02800
C938        C  0.48023769  0.60555428  0.26441708     0.04000
N939        N  0.47744108  0.56799528  0.25077433     0.66500
H940        H  0.51718987  0.57907510  0.28435753     0.15400
H941        H  0.45452888  0.70772678  0.27133215     0.15100
N942        N  0.49333594  0.71845460  0.30515299     0.74200
O943        O  0.51556514  0.58235274  0.23933236    -0.39200
O944        O  0.44547419  0.51861153  0.25335392    -0.39200
O945        O  0.51937948  0.76806735  0.30163698    -0.39900
O946        O  0.45776022  0.70165679  0.31770079    -0.40000
C947        C  0.63924939  0.74568032  0.36603192    -0.12200
C948        C  0.63058918  0.74708988  0.34680109     0.04800
C949        C  0.65181610  0.79730315  0.33769375    -0.07500
C950        C  0.67956856  0.84449868  0.34802806    -0.08300
C951        C  0.68780856  0.84304752  0.36725157    -0.02800
C952        C  0.66748325  0.79291122  0.37631316     0.04000
N953        N  0.67299088  0.78888569  0.39603131     0.66500
H954        H  0.62271044  0.70761767  0.37331730     0.15400
H955        H  0.69640351  0.88263791  0.34077530     0.15100
N956        N  0.64832531  0.80158481  0.31787895     0.74200
O957        O  0.63911811  0.78992947  0.40694929    -0.39200
O958        O  0.70249906  0.77130643  0.40195096    -0.39200
O959        O  0.62738943  0.82766890  0.31149941    -0.39900
O960        O  0.67866736  0.79322894  0.30741882    -0.40000
C961        C  0.88193605  0.00600720  0.10481427    -0.12200
C962        C  0.88136966  0.95883721  0.09952474     0.04800
C963        C  0.85737160  0.91387265  0.11172102    -0.07500
C964        C  0.83371967  0.91677969  0.12841451    -0.08300
C965        C  0.83373887  0.96374316  0.13353323    -0.02800
C966        C  0.85823793  0.00879763  0.12153786     0.04000
N967        N  0.85644778  0.05656139  0.12538653     0.66500
H968        H  0.89931887  0.04061753  0.09562049     0.15400
H969        H  0.81582466  0.88210384  0.13758827     0.15100
N970        N  0.85812746  0.86550186  0.10782357     0.74200
O971        O  0.89958954  0.09943151  0.12872216    -0.39200
O972        O  0.81611135  0.05929434  0.12018644    -0.39200
O973        O  0.89439461  0.85888577  0.11494965    -0.39900
O974        O  0.81651379  0.82531434  0.10151330    -0.40000
C975        C  0.65448905  0.83766931  0.16262942    -0.12200
C976        C  0.68390434  0.87170997  0.17745268     0.04800
C977        C  0.65948155  0.86213069  0.19530482    -0.07500
C978        C  0.60619294  0.82082826  0.19768140    -0.08300
C979        C  0.57608591  0.78850749  0.18256924    -0.02800
C980        C  0.60129691  0.79714998  0.16488350     0.04000
N981        N  0.57251602  0.76834245  0.14859229     0.66500
H982        H  0.67171415  0.84427300  0.14872816     0.15400
H983        H  0.58816768  0.81445519  0.21144236     0.15100
N984        N  0.68802707  0.89339604  0.21122353     0.74200
O985        O  0.54539790  0.78426060  0.13963596    -0.39200
O986        O  0.58353864  0.73543472  0.14101760    -0.39200
O987        O  0.67789830  0.92845170  0.21738775    -0.39900
O988        O  0.71279174  0.87741712  0.22149909    -0.40000
C989        C  0.81123422  0.22668407  0.26529239    -0.12200
C990        C  0.84209244  0.27299698  0.25451628     0.04800
C991        C  0.84733366  0.32209911  0.26064486    -0.07500
C992        C  0.82018066  0.32330879  0.27670951    -0.08300
C993        C  0.78775606  0.27655752  0.28717573    -0.02800
C994        C  0.78470406  0.22801145  0.28150179     0.04000
N995        N  0.75626395  0.17983174  0.29220880     0.66500
H996        H  0.80809117  0.18889975  0.26129261     0.15400
H997        H  0.82382901  0.36130794  0.28072437     0.15100
N998        N  0.87842470  0.37093217  0.25048622     0.74200
O999        O  0.71141396  0.14315790  0.28646625    -0.39200
O1000       O  0.78133370  0.16861762  0.30415596    -0.39200
O1001       O  0.85639455  0.38351964  0.23778168    -0.39900
O1002       O  0.92280998  0.40638764  0.25703921    -0.40000
C1003       C  0.99874200  0.40479782  0.21477891    -0.12200
C1004       C  0.98611232  0.35484719  0.20735736     0.04800
C1005       C  0.02103256  0.35299131  0.19381530    -0.07500
C1006       C  0.06858890  0.40011271  0.18910163    -0.08300
C1007       C  0.08263341  0.44980697  0.19749348    -0.02800
C1008       C  0.04576087  0.45164029  0.21006784     0.04000
N1009       N  0.05311845  0.50057652  0.21770310     0.66500
H1010       H  0.97190976  0.40810188  0.22457386     0.15400
H1011       H  0.09557882  0.39706433  0.17927300     0.15100
N1012       N  0.01028263  0.30387197  0.18510813     0.74200
O1013       O  0.01824893  0.51342579  0.21395899    -0.39200
O1014       O  0.08003095  0.51829296  0.23254165    -0.39200
O1015       O  0.99304479  0.29452542  0.16851677    -0.39900
O1016       O  0.03057640  0.27766305  0.19191557    -0.40000
C1017       C  0.89144413  0.15230086  0.19514077    -0.12200
C1018       C  0.85448007  0.16088895  0.20506894     0.04800
C1019       C  0.80140546  0.11786425  0.20715552    -0.07500
C1020       C  0.78627902  0.06833311  0.19881895    -0.08300
C1021       C  0.82314626  0.06019368  0.18857214    -0.02800
C1022       C  0.87671434  0.10255541  0.18719755     0.04000
N1023       N  0.91749176  0.09530840  0.17865806     0.66500
H1024       H  0.93279982  0.18400013  0.19396008     0.15400
H1025       H  0.74491387  0.03655034  0.19998142     0.15100
N1026       N  0.76178476  0.12388832  0.21714258     0.74200
O1027       O  0.94283652  0.12396818  0.16478957    -0.39200
O1028       O  0.93752833  0.07222538  0.18783512    -0.39200
O1029       O  0.72903196  0.13220078  0.20814521    -0.39900
O1030       O  0.75135689  0.10793889  0.23387794    -0.40000
C1031       C  0.93387569  0.40243000  0.33667049    -0.12200
C1032       C  0.90556912  0.36834563  0.35159395     0.04800
C1033       C  0.92926482  0.34273275  0.36129542    -0.07500
C1034       C  0.97967834  0.35161964  0.35583292    -0.08300
C1035       C  0.00712665  0.38414180  0.34034879    -0.02800
C1036       C  0.98298418  0.40946900  0.33070925     0.04000
N1037       N  0.00494269  0.43959564  0.31401474     0.66500
H1038       H  0.91686078  0.42247511  0.32880335     0.15400
H1039       H  0.99620652  0.33084983  0.36344866     0.15100
N1040       N  0.90177859  0.30499912  0.37594375     0.74200
O1041       O  0.97858622  0.42140789  0.29908480    -0.39200
O1042       O  0.03719128  0.48937793  0.31534206    -0.39200
O1043       O  0.87579444  0.25559954  0.37207454    -0.39900
O1044       O  0.91409079  0.31939259  0.39273931    -0.40000
C1045       C  0.16197172  0.47823020  0.26424161    -0.12200
C1046       C  0.21604949  0.49405995  0.26243113     0.04800
C1047       C  0.24145258  0.48203864  0.27690862    -0.07500
C1048       C  0.21241452  0.45579352  0.29305204    -0.08300
C1049       C  0.15798599  0.44084898  0.29510729    -0.02800
C1050       C  0.13284721  0.45201695  0.28018837     0.04000
N1051       N  0.07775905  0.43711583  0.28053859     0.66500
H1052       H  0.14157252  0.48593070  0.25297839     0.15400
H1053       H  0.23317226  0.44812883  0.30418136     0.15100
N1054       N  0.29697603  0.49810137  0.27584528     0.74200
O1055       O  0.06606661  0.47334961  0.27775153    -0.39200
O1056       O  0.04314576  0.38901797  0.27701059    -0.39200
O1057       O  0.33121139  0.54136831  0.28347574    -0.39900
O1058       O  0.31042791  0.46450839  0.27077552    -0.40000
C1059       C  0.11985888  0.14131345  0.44944396    -0.12200
C1060       C  0.11286250  0.08964982  0.45134515     0.04800
C1061       C  0.13542237  0.07118679  0.43771790    -0.07500
C1062       C  0.16479550  0.10459633  0.42281220    -0.08300
C1063       C  0.17146833  0.15609057  0.42087632    -0.02800
C1064       C  0.14874772  0.17447986  0.43443582     0.04000
N1065       N  0.15670890  0.22759794  0.43374656     0.66500
H1066       H  0.10382404  0.15670809  0.45991973     0.15400
H1067       H  0.18128471  0.08950896  0.41239289     0.15100
N1068       N  0.12722323  0.01796532  0.43832995     0.74200
O1069       O  0.12006268  0.23468356  0.42727066    -0.39200
O1070       O  0.19283730  0.26376967  0.44371595    -0.39200
O1071       O  0.08592722  0.98015258  0.43084532    -0.39900
O1072       O  0.16610832  0.01124138  0.44218442    -0.40000
C1073       C  0.37990463  0.18110434  0.37200695    -0.12200
C1074       C  0.41926893  0.22930463  0.36391705     0.04800
C1075       C  0.40880123  0.27192700  0.36175941    -0.07500
C1076       C  0.35967838  0.26548740  0.36741559    -0.08300
C1077       C  0.32034020  0.21762670  0.37568013    -0.02800
C1078       C  0.33074331  0.17489264  0.37790235     0.04000
N1079       N  0.29187188  0.12472991  0.38581490     0.66500
H1080       H  0.38756578  0.14819672  0.37395159     0.15400
H1081       H  0.35344083  0.29944736  0.36608471     0.15100
N1082       N  0.44904023  0.32365078  0.35537440     0.74200
O1083       O  0.26022769  0.08750338  0.37507649    -0.39200
O1084       O  0.29828783  0.11344741  0.40232266    -0.39200
O1085       O  0.44502717  0.33857131  0.33916957    -0.39900
O1086       O  0.47816151  0.35854973  0.36726436    -0.40000
C1087       C  0.15150704  0.28903499  0.37864091    -0.12200
C1088       C  0.19308331  0.28353588  0.37068699     0.04800
C1089       C  0.21512864  0.30968637  0.35344742    -0.07500
C1090       C  0.19422043  0.33826567  0.34445459    -0.08300
C1091       C  0.15118360  0.34197311  0.35201334    -0.02800
C1092       C  0.13066585  0.31785114  0.36963961     0.04000
N1093       N  0.08857920  0.32165271  0.37872611     0.66500
H1094       H  0.13432571  0.27040083  0.39194979     0.15400
H1095       H  0.21144720  0.35661524  0.33109328     0.15100
N1096       N  0.25780667  0.30675967  0.34441476     0.74200
O1097       O  0.04184743  0.28152864  0.37852941    -0.39200
O1098       O  0.10041439  0.35775216  0.39085766    -0.39200
O1099       O  0.24712342  0.27358345  0.33128571    -0.39900
O1100       O  0.30517421  0.34504966  0.34630715    -0.40000
C1101       C  0.66015756  0.84177411  0.05223679    -0.12200
C1102       C  0.63611543  0.85792300  0.03856303     0.04800
C1103       C  0.66153296  0.87480873  0.02096246    -0.07500
C1104       C  0.71107965  0.87821443  0.01789513    -0.08300
C1105       C  0.73673895  0.86534469  0.03199528    -0.02800
C1106       C  0.70977542  0.84552814  0.04924205     0.04000
N1107       N  0.73322866  0.83228562  0.06442873     0.66500
H1108       H  0.64174731  0.82848185  0.06587864     0.15400
H1109       H  0.73002233  0.89218628  0.00436087     0.15100
N1110       N  0.63799396  0.88848539  0.00593078     0.74200
O1111       O  0.76005744  0.86772420  0.07648336    -0.39200
O1112       O  0.71519551  0.78356172  0.06850390    -0.39200
O1113       O  0.66373813  0.93469909  0.99877514    -0.39900
O1114       O  0.60033927  0.85131673  0.99675538    -0.40000
C1115       C  0.47677693  0.75307389  0.08458159    -0.12200
C1116       C  0.48627854  0.80540408  0.08203548     0.04800
C1117       C  0.46570550  0.82709247  0.09518344    -0.07500
C1118       C  0.43828746  0.79722595  0.11093711    -0.08300
C1119       C  0.43029487  0.74557525  0.11382568    -0.02800
C1120       C  0.44833989  0.72273079  0.10014511     0.04000
N1121       N  0.43589383  0.66806278  0.10133377     0.66500
H1122       H  0.49065155  0.73521538  0.07424485     0.15400
H1123       H  0.42474217  0.81537262  0.12127767     0.15100
N1124       N  0.47457987  0.88036301  0.09330835     0.74200
O1125       O  0.47092370  0.65760307  0.10716206    -0.39200
O1126       O  0.39569781  0.63238726  0.09264931    -0.39200
O1127       O  0.43681054  0.88704703  0.08777581    -0.39900
O1128       O  0.51450972  0.91862404  0.10124303    -0.40000
C1129       C  0.53682474  0.11779020  0.95901076    -0.12200
C1130       C  0.48275521  0.10302201  0.96141426     0.04800
C1131       C  0.45731865  0.11647856  0.94727632    -0.07500
C1132       C  0.48625776  0.14485205  0.93147649    -0.08300
C1133       C  0.54035825  0.15991642  0.92911757    -0.02800
C1134       C  0.56562802  0.14580774  0.94308700     0.04000
N1135       N  0.62086515  0.16105682  0.94170771     0.66500
H1136       H  0.55732159  0.10813737  0.96968229     0.15400
H1137       H  0.46568056  0.15412220  0.92073026     0.15100
N1138       N  0.40155383  0.09946191  0.94816564     0.74200
O1139       O  0.65567683  0.20394977  0.94938011    -0.39200
O1140       O  0.63327167  0.12655018  0.93682104    -0.39200
O1141       O  0.38730010  0.13288775  0.95262643    -0.39900
O1142       O  0.36824549  0.05603113  0.94038609    -0.40000
C1143       C  0.30134429  0.04345177  0.99111854    -0.12200
C1144       C  0.33299763  0.04248390  0.00574218     0.04800
C1145       C  0.31295777  0.03448437  0.02422105    -0.07500
C1146       C  0.26153669  0.02644344  0.02753057    -0.08300
C1147       C  0.22940950  0.02615405  0.01272555    -0.02800
C1148       C  0.25018447  0.03509013  0.99432768     0.04000
N1149       N  0.21811949  0.02963908  0.97839495     0.66500
H1150       H  0.31516196  0.04794952  0.97677372     0.15400
H1151       H  0.24659697  0.02005273  0.04177153     0.15100
N1152       N  0.34442985  0.03580230  0.03982948     0.74200
O1153       O  0.21979382  0.07094068  0.97162153    -0.39200
O1154       O  0.20264610  0.98874618  0.96819615    -0.39200
O1155       O  0.37281569  0.07976936  0.04819039    -0.39900
O1156       O  0.33214849  0.99258889  0.04822327    -0.40000
C1157       C  0.45429592  0.90801372  0.03141687    -0.12200
C1158       C  0.50957018  0.92668986  0.03077720     0.04800
C1159       C  0.54329205  0.97436727  0.02093326    -0.07500
C1160       C  0.52128314  0.00212415  0.01206021    -0.08300
C1161       C  0.46611292  0.98373558  0.01290589    -0.02800
C1162       C  0.43232969  0.93576925  0.02260386     0.04000
N1163       N  0.37550783  0.91311106  0.02298244     0.66500
H1164       H  0.42746571  0.87084692  0.03858067     0.15400
H1165       H  0.54796677  0.03926440  0.00485722     0.15100
N1166       N  0.60006169  0.99693096  0.02057362     0.74200
O1167       O  0.34800328  0.88386923  0.00954875    -0.39200
O1168       O  0.35270676  0.91005522  0.03837931    -0.39200
O1169       O  0.62330025  0.00355576  0.00501974    -0.39900
O1170       O  0.62715290  0.02303385  0.03459043    -0.40000
C1171       C  0.48495845  0.64523298  0.61652921    -0.12200
C1172       C  0.43103937  0.60534928  0.61800257     0.04800
C1173       C  0.40737379  0.56820632  0.60332042    -0.07500
C1174       C  0.43803702  0.57181860  0.58759220    -0.08300
C1175       C  0.49249235  0.61176741  0.58613696    -0.02800
C1176       C  0.51558679  0.64881015  0.60093349     0.04000
N1177       N  0.57085899  0.68826479  0.60125414     0.66500
H1178       H  0.50423141  0.67362896  0.62784593     0.15400
H1179       H  0.41865296  0.54329756  0.57635394     0.15100
N1180       N  0.35197896  0.52805061  0.60374998     0.74200
O1181       O  0.58340274  0.73700392  0.60101345    -0.39200
O1182       O  0.60239657  0.67567323  0.60885319    -0.39200
O1183       O  0.31798517  0.53793818  0.59650642    -0.39900
O1184       O  0.33880616  0.48012852  0.60746286    -0.40000
C1185       C  0.67788783  0.69248157  0.52839664    -0.12200
C1186       C  0.64609076  0.70160442  0.54121129     0.04800
C1187       C  0.66582584  0.75462012  0.54781070    -0.07500
C1188       C  0.71661859  0.79562763  0.54230825    -0.08300
C1189       C  0.74910060  0.78591938  0.53020379    -0.02800
C1190       C  0.72866848  0.73355707  0.52291614     0.04000
N1191       N  0.75980367  0.72023686  0.51081019     0.66500
H1192       H  0.66435426  0.65253121  0.52300065     0.15400
H1193       H  0.73087327  0.83568231  0.54775275     0.15100
N1194       N  0.63547128  0.76844346  0.56004182     0.74200
O1195       O  0.78984060  0.70466617  0.51780619    -0.39200
O1196       O  0.74842443  0.71258635  0.49362760    -0.39200
O1197       O  0.65712842  0.79352341  0.57492496    -0.39900
O1198       O  0.59609129  0.77079626  0.55351151    -0.40000
C1199       C  0.26546336  0.17109739  0.52841016    -0.12200
C1200       C  0.24219083  0.12646525  0.51637093     0.04800
C1201       C  0.27059612  0.12840380  0.49989167    -0.07500
C1202       C  0.31898872  0.17461643  0.49551799    -0.08300
C1203       C  0.34079750  0.22031776  0.50700032    -0.02800
C1204       C  0.31386637  0.21756535  0.52393714     0.04000
N1205       N  0.33420783  0.26156203  0.53673636     0.66500
H1206       H  0.24516382  0.17095310  0.54119570     0.15400
H1207       H  0.33861153  0.17493135  0.48255954     0.15100
N1208       N  0.24993437  0.08519291  0.48675593     0.74200
O1209       O  0.31531229  0.29273386  0.53648704    -0.39200
O1210       O  0.36023979  0.26121449  0.55085640    -0.39200
O1211       O  0.22794251  0.08871853  0.47199636    -0.39900
O1212       O  0.26477005  0.05080178  0.48768663    -0.40000
C1213       C  0.49243441  0.27980479  0.43045121    -0.12200
C1214       C  0.54803627  0.31452401  0.42950042     0.04800
C1215       C  0.57480377  0.34749385  0.44495528    -0.07500
C1216       C  0.54540409  0.34615577  0.46077902    -0.08300
C1217       C  0.48955363  0.31184121  0.46163079    -0.02800
C1218       C  0.46310877  0.27814086  0.44625320     0.04000
N1219       N  0.40625749  0.24402370  0.44595643     0.66500
H1220       H  0.47127492  0.25425597  0.41864685     0.15400
H1221       H  0.56656819  0.37153645  0.47260346     0.15100
N1222       N  0.63184821  0.38016887  0.44524996     0.74200
O1223       O  0.37767038  0.26162746  0.43917244    -0.39200
O1224       O  0.38652875  0.19404494  0.44790890    -0.39200
O1225       O  0.65323988  0.43002411  0.44248400    -0.39900
O1226       O  0.65941627  0.36164387  0.45224342    -0.40000
C1227       C  0.52475247  0.51224223  0.51510269    -0.12200
C1228       C  0.50918045  0.51105683  0.53380642     0.04800
C1229       C  0.47375387  0.46074909  0.54205722    -0.07500
C1230       C  0.45546325  0.41358153  0.53170466    -0.08300
C1231       C  0.47121057  0.41468029  0.51306259    -0.02800
C1232       C  0.50597669  0.46499381  0.50468015     0.04000
N1233       N  0.52119655  0.46933838  0.48543315     0.66500
H1234       H  0.55104321  0.55024200  0.50832282     0.15400
H1235       H  0.42930162  0.37566110  0.53853538     0.15100
N1236       N  0.45684022  0.45620791  0.56109774     0.74200
O1237       O  0.49332831  0.47558410  0.47318139    -0.39200
O1238       O  0.56739634  0.47815409  0.48121536    -0.39200
O1239       O  0.41036325  0.44769256  0.56463464    -0.39900
O1240       O  0.48242882  0.44771008  0.57364575    -0.40000
C1241       C  0.80698254  0.50428933  0.76420488    -0.12200
C1242       C  0.82510861  0.48157555  0.75082290     0.04800
C1243       C  0.81359495  0.42827007  0.75309144    -0.07500
C1244       C  0.78494183  0.39902370  0.76888204    -0.08300
C1245       C  0.76701649  0.42189648  0.78244247    -0.02800
C1246       C  0.77850524  0.47519085  0.77992833     0.04000
N1247       N  0.76320070  0.50121536  0.79349882     0.66500
H1248       H  0.81601696  0.54547651  0.76266583     0.15400
H1249       H  0.77568201  0.35793205  0.77039480     0.15100
N1250       N  0.82823724  0.40260177  0.73903525     0.74200
O1251       O  0.79455027  0.52597759  0.80685297    -0.39200
O1252       O  0.72578864  0.51023986  0.78965042    -0.39200
O1253       O  0.86667849  0.39433130  0.74181151    -0.39900
O1254       O  0.80441535  0.39051947  0.72346998    -0.40000
C1255       C  0.98289674  0.50413408  0.70987866    -0.12200
C1256       C  0.98040728  0.55147834  0.70871935     0.04800
C1257       C  0.02529135  0.59852476  0.70190882    -0.07500
C1258       C  0.07053171  0.59688978  0.69602034    -0.08900
C1259       C  0.07353237  0.54993687  0.69752661    -0.02800
C1260       C  0.02916101  0.50318663  0.70467291     0.04000
N1261       N  0.03065021  0.45498990  0.70748322     0.66500
H1262       H  0.94889423  0.46757511  0.71511349     0.15400
H1263       H  0.10536892  0.63403130  0.69161860     0.15100
N1264       N  0.02828779  0.64951936  0.70262236     0.74200
O1265       O  0.02621597  0.43760256  0.72397408    -0.39200
O1266       O  0.01958592  0.42294082  0.69395626    -0.39200
O1267       O  0.03805072  0.67366392  0.71811687    -0.39900
O1268       O  0.03839814  0.67649357  0.68775237    -0.40000
C1269       C  0.59727483  0.74176884  0.67450058    -0.12200
C1270       C  0.55954514  0.69423795  0.68344267     0.04800
C1271       C  0.57254785  0.65384759  0.68691026    -0.07500
C1272       C  0.62187026  0.66113816  0.68120919    -0.08300
C1273       C  0.65936481  0.70810609  0.67198523    -0.02800
C1274       C  0.64713749  0.74922006  0.66890479     0.04000
N1275       N  0.68528155  0.79936839  0.66079175     0.66500
H1276       H  0.58799333  0.77328503  0.67181487     0.15400
H1277       H  0.62999975  0.62867315  0.68349723     0.15100
N1278       N  0.53459333  0.60324459  0.69480776     0.74200
O1279       O  0.67643993  0.81143055  0.64474533    -0.39200
O1280       O  0.71881381  0.83608194  0.67128261    -0.39200
O1281       O  0.50646868  0.56434261  0.68406683    -0.39900
O1282       O  0.53781836  0.59450792  0.71192522    -0.40000
C1283       C  0.86527067  0.78224057  0.62597000    -0.12200
C1284       C  0.81041871  0.76582499  0.62704326     0.04800
C1285       C  0.78679837  0.77777994  0.61193247    -0.07500
C1286       C  0.81807129  0.80732100  0.59670832    -0.08300
C1287       C  0.87277758  0.82414686  0.59574227    -0.02800
C1288       C  0.89632197  0.81059845  0.61046484     0.04000
N1289       N  0.95194559  0.82690624  0.61029376     0.66500
H1290       H  0.88460571  0.77351131  0.63732146     0.15400
H1291       H  0.79877881  0.81549616  0.58518123     0.15100
N1292       N  0.73034239  0.75518455  0.61065431     0.74200
O1293       O  0.96617474  0.79418340  0.60487432    -0.39200
O1294       O  0.98438522  0.86776076  0.61952056    -0.39200
O1295       O  0.71092617  0.78579926  0.61173380    -0.39900
O1296       O  0.70393894  0.71056314  0.60250470    -0.40000
C1297       C  0.84996512  0.67217948  0.67859785    -0.12200
C1298       C  0.79639179  0.65750607  0.68175003     0.04800
C1299       C  0.76692531  0.61804756  0.69543099    -0.07500
C1300       C  0.79105318  0.59337340  0.70501124    -0.08300
C1301       C  0.84457598  0.60741476  0.70155178    -0.02800
C1302       C  0.87418225  0.64810609  0.68833233     0.04000
N1303       N  0.92943832  0.66720749  0.68486971     0.66500
H1304       H  0.87402525  0.70335216  0.66857775     0.15400
H1305       H  0.76707482  0.56244885  0.71511084     0.15100
N1306       N  0.71236604  0.60152804  0.69963790     0.74200
O1307       O  0.94258683  0.65353274  0.66989220    -0.39200
O1308       O  0.96361545  0.70901506  0.69326164    -0.39200
O1309       O  0.67574003  0.55726393  0.69337187    -0.39900
O1310       O  0.70221277  0.62304141  0.71322620    -0.40000
C1311       C  0.32370084  0.07433550  0.88174403    -0.12200
C1312       C  0.31076290  0.02437902  0.87394224     0.04800
C1313       C  0.34550190  0.02301951  0.86021150    -0.07500
C1314       C  0.39196564  0.07007312  0.85516314    -0.08300
C1315       C  0.40626712  0.11936386  0.86364176    -0.02800
C1316       C  0.37076634  0.12141267  0.87683081     0.04000
N1317       N  0.38156525  0.17064133  0.88545647     0.66500
H1318       H  0.29763542  0.07716015  0.89201994     0.15400
H1319       H  0.41848973  0.06700091  0.84513425     0.15100
N1320       N  0.33695233  0.97412455  0.85203607     0.74200
O1321       O  0.36257988  0.19756249  0.87825130    -0.39200
O1322       O  0.39772247  0.17978727  0.90217551    -0.39200
O1323       O  0.31066317  0.95815360  0.83700789    -0.39900
O1324       O  0.36827356  0.95719810  0.85638179    -0.40000
C1325       C  0.12827122  0.88676071  0.92828498    -0.12200
C1326       C  0.15826860  0.93467265  0.91814320     0.04800
C1327       C  0.15651709  0.98071178  0.92366333    -0.07500
C1328       C  0.12541374  0.97799959  0.93905170    -0.08300
C1329       C  0.09601377  0.93031545  0.94941704    -0.02800
C1330       C  0.09744425  0.88411305  0.94373408     0.04000
N1331       N  0.07003864  0.83477643  0.95387065     0.66500
H1332       H  0.12930662  0.85086740  0.92443233     0.15400
H1333       H  0.12560157  0.01421846  0.94318446     0.15100
N1334       N  0.18532464  0.03037808  0.91379154     0.74200
O1335       O  0.02411786  0.79908645  0.94855937    -0.39200
O1336       O  0.09619613  0.82221271  0.96485857    -0.39200
O1337       O  0.16117737  0.04236720  0.90171428    -0.39900
O1338       O  0.22908077  0.06688740  0.92038312    -0.40000
C1339       C  0.97436325  0.50294043  0.82710371    -0.12200
C1340       C  0.00176707  0.53983336  0.84145656     0.04800
C1341       C  0.97752206  0.53114086  0.85928308    -0.07500
C1342       C  0.92588244  0.48780168  0.86204975    -0.08300
C1343       C  0.89724956  0.45290100  0.84734307    -0.02800
C1344       C  0.92256136  0.46034625  0.82972815     0.04000
N1345       N  0.89475570  0.42890672  0.81373667     0.66500
H1346       H  0.99167367  0.50896697  0.81322738     0.15400
H1347       H  0.90778617  0.48215415  0.87577373     0.15100
N1348       N  0.00422768  0.56574250  0.87475019     0.74200
O1349       O  0.86913548  0.44411944  0.80359221    -0.39200
O1350       O  0.90721905  0.39590833  0.80719316    -0.39200
O1351       O  0.98425508  0.59166741  0.88205776    -0.39900
O1352       O  0.03776981  0.55913031  0.88394926    -0.40000
C1353       C  0.12054739  0.59759545  0.78375198    -0.12200
C1354       C  0.15099624  0.63485626  0.79764175     0.04800
C1355       C  0.20532511  0.67272124  0.79394393    -0.07500
C1356       C  0.22797573  0.67189487  0.77671542    -0.08300
C1357       C  0.19760286  0.63388978  0.76300850    -0.02800
C1358       C  0.14312358  0.59697346  0.76655987     0.04000
N1359       N  0.10942739  0.56002948  0.75259139     0.66500
H1360       H  0.07844415  0.56925100  0.78605015     0.15400
H1361       H  0.27005614  0.70011122  0.77429297     0.15100
N1362       N  0.23880317  0.71073740  0.80772118     0.74200
O1363       O  0.09712342  0.51143467  0.75374194    -0.39200
O1364       O  0.08191836  0.57267103  0.74232994    -0.39200
O1365       O  0.26716871  0.69956514  0.81813065    -0.39900
O1366       O  0.24969304  0.75889023  0.80637668    -0.40000
C1367       C  0.12346073  0.79794326  0.86786832    -0.12200
C1368       C  0.17935384  0.83029689  0.86931126     0.04800
C1369       C  0.21243675  0.81192987  0.86183414    -0.07500
C1370       C  0.18932190  0.76299655  0.85248414    -0.08300
C1371       C  0.13369349  0.73110782  0.85080152    -0.02800
C1372       C  0.10032314  0.74846823  0.85877866     0.04000
N1373       N  0.04333212  0.71789206  0.85715988     0.66500
H1374       H  0.09743046  0.81159619  0.87350490     0.15400
H1375       H  0.21520779  0.74907270  0.84691660     0.15100
N1376       N  0.26907435  0.84031206  0.86452062     0.74200
O1377       O  0.01569058  0.69719739  0.87169036    -0.39200
O1378       O  0.02125190  0.72459429  0.84300050    -0.39200
O1379       O  0.28731890  0.84047676  0.88057563    -0.39900
O1380       O  0.29912328  0.85014213  0.85046737    -0.40000
C1381       C  0.51879046  0.12549781  0.25553440    -0.12200
C1382       C  0.46796778  0.11956442  0.25298940     0.04800
C1383       C  0.44826939  0.14125891  0.26644120    -0.07500
C1384       C  0.47993634  0.16916501  0.28186442    -0.08300
C1385       C  0.53088338  0.17510799  0.28446698    -0.02800
C1386       C  0.55025426  0.15288544  0.27102024     0.04000
N1387       N  0.60210183  0.15840594  0.27259899     0.66500
H1388       H  0.53467526  0.10940419  0.24526032     0.15400
H1389       H  0.46369087  0.18470732  0.29220379     0.15100
N1390       N  0.39481575  0.13191348  0.26544740     0.74200
O1391       O  0.60584356  0.11891911  0.27827017    -0.39200
O1392       O  0.64107193  0.19612012  0.26403484    -0.39200
O1393       O  0.35724893  0.08960865  0.27256105    -0.39900
O1394       O  0.38727136  0.17052967  0.26186271    -0.40000
C1395       C  0.38502345  0.94770241  0.19048197    -0.12200
C1396       C  0.41266713  0.97305652  0.20699661     0.04800
C1397       C  0.43792827  0.94923027  0.21696908    -0.07500
C1398       C  0.43243916  0.90035369  0.21096245    -0.08300
C1399       C  0.40194757  0.87321504  0.19511228    -0.02800
C1400       C  0.37955704  0.89871551  0.18447396     0.04000
N1401       N  0.34960962  0.87504151  0.16782244     0.66500
H1402       H  0.36613489  0.96522907  0.18225557     0.15400
H1403       H  0.45088087  0.88268192  0.21935467     0.15100
N1404       N  0.46795407  0.97269892  0.23364083     0.74200
O1405       O  0.29914914  0.85013646  0.16857174    -0.39200
O1406       O  0.37250955  0.89020914  0.15214095    -0.39200
O1407       O  0.44556962  0.95625743  0.24934575    -0.39900
O1408       O  0.51839931  0.99940468  0.23276250    -0.40000
C1409       C  0.19245089  0.09505325  0.11770063    -0.12200
C1410       C  0.17424501  0.12529896  0.12749157     0.04800
C1411       C  0.13021941  0.12799964  0.12024759    -0.07500
C1412       C  0.10508760  0.10010829  0.10388331    -0.08300
C1413       C  0.12300663  0.06957765  0.09402248    -0.02800
C1414       C  0.16807168  0.06809486  0.10102494     0.04000
N1415       N  0.19147919  0.04185753  0.09106947     0.66500
H1416       H  0.22705981  0.09349186  0.12272479     0.15400
H1417       H  0.07055319  0.10211189  0.09905460     0.15100
N1418       N  0.10894025  0.15714101  0.12960176     0.74200
O1419       O  0.22384417  0.06656192  0.07792951    -0.39200
O1420       O  0.19167917  0.00218581  0.09846891    -0.39200
O1421       O  0.11898458  0.20207168  0.12317721    -0.39900
O1422       O  0.07005682  0.13255362  0.14070960    -0.40000
C1423       C  0.24106317  0.29313276  0.19027551    -0.12200
C1424       C  0.23854076  0.27915716  0.17123273     0.04800
C1425       C  0.24186492  0.31602136  0.15753377    -0.07500
C1426       C  0.24533981  0.36425239  0.16295514    -0.08300
C1427       C  0.24801557  0.37846164  0.18188641    -0.02800
C1428       C  0.24595087  0.34244355  0.19567763     0.04000
N1429       N  0.24835770  0.35520633  0.21512789     0.66500
H1430       H  0.23883859  0.26550638  0.20101116     0.15400
H1431       H  0.24961204  0.39247978  0.15210684     0.15100
N1432       N  0.24766576  0.30803587  0.13810881     0.74200
O1433       O  0.21126888  0.36004547  0.22254398    -0.39200
O1434       O  0.29028382  0.36770637  0.22433755    -0.39200
O1435       O  0.21446645  0.30747841  0.12651166    -0.39900
O1436       O  0.29218470  0.31552787  0.13224978    -0.40000
C1437       C  0.33129785  0.17550731  0.19181889    -0.12200
C1438       C  0.28649164  0.13891953  0.18140265     0.04800
C1439       C  0.27434860  0.08482895  0.18047861    -0.07500
C1440       C  0.30676203  0.06880535  0.18980029    -0.08300
C1441       C  0.35158231  0.10545280  0.20019305    -0.02800
C1442       C  0.36399403  0.15961036  0.20097427     0.04000
N1443       N  0.41136689  0.19986539  0.21000439     0.66500
H1444       H  0.34235548  0.21744215  0.19238635     0.15400
H1445       H  0.29605033  0.02697353  0.18914348     0.15100
N1446       N  0.22834523  0.04505279  0.17068212     0.74200
O1447       O  0.45481607  0.22238587  0.20097229    -0.39200
O1448       O  0.40718230  0.22176702  0.22470830    -0.39200
O1449       O  0.23408353  0.02988470  0.15470936    -0.39900
O1450       O  0.18523181  0.01700668  0.17954230    -0.40000
C1451       C  0.45264093  0.96539047  0.33461360    -0.12200
C1452       C  0.40118149  0.95342929  0.34023755     0.04800
C1453       C  0.39609845  0.99012569  0.35209584    -0.07500
C1454       C  0.44162022  0.03750914  0.35761248    -0.08300
C1455       C  0.49270474  0.05079288  0.35115031    -0.02800
C1456       C  0.49808406  0.01349752  0.33978737     0.04000
N1457       N  0.54908506  0.02399018  0.33302673     0.66500
H1458       H  0.45785481  0.93763220  0.32584685     0.15400
H1459       H  0.43617565  0.06572795  0.36605101     0.15100
N1460       N  0.34511120  0.98250075  0.35759631     0.74200
O1461       O  0.57378141  0.00481291  0.34169824    -0.39200
O1462       O  0.56278134  0.04064325  0.31648256    -0.39200
O1463       O  0.32967299  0.96921101  0.37426801    -0.39900
O1464       O  0.32379006  0.00322657  0.34780506    -0.40000
C1465       C  0.26993655  0.76727079  0.28590533    -0.12200
C1466       C  0.31810403  0.80257238  0.29495312     0.04800
C1467       C  0.36635833  0.80905671  0.28749344    -0.07500
C1468       C  0.36530155  0.78091828  0.27129974    -0.08300
C1469       C  0.31682283  0.74543031  0.26224080    -0.02800
C1470       C  0.26870016  0.73863240  0.26997224     0.04000
N1471       N  0.21795082  0.70444000  0.26156340     0.66500
H1472       H  0.23230904  0.76193330  0.29106899     0.15400
H1473       H  0.40296305  0.78658025  0.26597591     0.15100
N1474       N  0.41658594  0.84217119  0.29648829     0.74200
O1475       O  0.18897466  0.65759028  0.26791240    -0.39200
O1476       O  0.19674503  0.72548160  0.25192424    -0.39200
O1477       O  0.43398241  0.82120493  0.30795354    -0.39900
O1478       O  0.44832065  0.88799259  0.28984821    -0.40000
C1479       C  0.96000696  0.80950753  0.44084471    -0.12200
C1480       C  0.00716927  0.83754423  0.45153728     0.04800
C1481       C  0.05382641  0.83778049  0.44541444    -0.07500
C1482       C  0.05322459  0.81282481  0.42856775    -0.08300
C1483       C  0.00652628  0.78607701  0.41772183    -0.02800
C1484       C  0.95924945  0.78373871  0.42416475     0.04000
N1485       N  0.91054422  0.75675828  0.41371076     0.66500
H1486       H  0.92345467  0.80830972  0.44521285     0.15400
H1487       H  0.08945446  0.81337860  0.42417962     0.15100
N1488       N  0.10134619  0.86053911  0.45651657     0.74200
O1489       O  0.87399112  0.71079664  0.41873433    -0.39200
O1490       O  0.90544315  0.77716381  0.39877787    -0.39200
O1491       O  0.10805420  0.83102013  0.46794801    -0.39900
O1492       O  0.14097407  0.90495986  0.45179840    -0.40000
C1493       C  0.86969474  0.63475684  0.37315699    -0.12200
C1494       C  0.92141879  0.64268555  0.37044601     0.04800
C1495       C  0.92723257  0.60198291  0.36163814    -0.07500
C1496       C  0.88197085  0.55424400  0.35625788    -0.08300
C1497       C  0.83020500  0.54499007  0.35981368    -0.02800
C1498       C  0.82416794  0.58643682  0.36793455     0.04000
N1499       N  0.77244351  0.58063774  0.37068307     0.66500
H1500       H  0.86451820  0.66605427  0.37951300     0.15400
H1501       H  0.88762543  0.52263761  0.35043372     0.15100
N1502       N  0.97838239  0.60595451  0.35968129     0.74200
O1503       O  0.75148611  0.56923166  0.38675217    -0.39200
O1504       O  0.75462168  0.59979269  0.35865649    -0.39200
O1505       O  0.99524859  0.58857789  0.37266034    -0.39900
O1506       O  0.99922314  0.61325886  0.34363897    -0.40000
C1507       C  0.11663251  0.74960719  0.35052643    -0.12200
C1508       C  0.11166000  0.78082005  0.36459857     0.04800
C1509       C  0.15686960  0.83099637  0.36908116    -0.07500
C1510       C  0.20523696  0.84803061  0.35968411    -0.08300
C1511       C  0.21035353  0.81649285  0.34572067    -0.02800
C1512       C  0.16492596  0.76658321  0.34115325     0.04000
N1513       N  0.16658704  0.73192862  0.32718914     0.66500
H1514       H  0.08292471  0.71098866  0.34680512     0.15400
H1515       H  0.23885106  0.88675941  0.36332508     0.15100
N1516       N  0.15463549  0.86595195  0.38281927     0.74200
O1517       O  0.17733130  0.69617967  0.33198176    -0.39200
O1518       O  0.14434222  0.72796714  0.31161467    -0.39200
O1519       O  0.17550527  0.86975444  0.39866491    -0.39900
O1520       O  0.14400122  0.90156232  0.37773459    -0.40000
C1521       C  0.24247371  0.26978516  0.02341896    -0.12200
C1522       C  0.24224972  0.29160117  0.04103779     0.04800
C1523       C  0.19542785  0.26488590  0.05211132    -0.07500
C1524       C  0.15147362  0.21747064  0.04568068    -0.08300
C1525       C  0.15267544  0.19391000  0.02855592    -0.02800
C1526       C  0.19869104  0.22157899  0.01714406     0.04000
N1527       N  0.20243499  0.20125481  0.99930553     0.66500
H1528       H  0.27727437  0.28979683  0.01442615     0.15400
H1529       H  0.11712107  0.19752070  0.05489455     0.15100
N1530       N  0.19235885  0.28279821  0.07047976     0.74200
O1531       O  0.18872005  0.21647176  0.98484019    -0.39200
O1532       O  0.23053821  0.17916546  0.99760761    -0.39200
O1533       O  0.15939880  0.29858630  0.07353854    -0.39900
O1534       O  0.20976614  0.26821349  0.08412956    -0.40000
C1535       C  0.29573479  0.48433847  0.10464921    -0.12200
C1536       C  0.33834532  0.50239273  0.11738835     0.04800
C1537       C  0.37972893  0.49096326  0.11379039    -0.07500
C1538       C  0.37819144  0.46297602  0.09753351    -0.08300
C1539       C  0.33550172  0.44494995  0.08480906    -0.02800
C1540       C  0.29392246  0.45594351  0.08851004     0.04000
N1541       N  0.25079723  0.44096258  0.07567963     0.66500
H1542       H  0.26384904  0.49320257  0.10703101     0.15400
H1543       H  0.40993734  0.45392800  0.09512614     0.15100
N1544       N  0.42155151  0.50406081  0.12704016     0.74200
O1545       O  0.20368313  0.40826097  0.08091819    -0.39200
O1546       O  0.25776443  0.47058262  0.06171052    -0.39200
O1547       O  0.41628985  0.46935212  0.13894485    -0.39900
O1548       O  0.46734662  0.54412151  0.12412608    -0.40000
C1549       C  0.59843725  0.43256993  0.95186796    -0.12200
C1550       C  0.64078500  0.44618776  0.96441068     0.04800
C1551       C  0.68316088  0.43792629  0.95909694    -0.07500
C1552       C  0.68265587  0.41677385  0.94147148    -0.08300
C1553       C  0.64035348  0.40301491  0.92892233    -0.02800
C1554       C  0.59794875  0.41132815  0.93420533     0.04000
N1555       N  0.55557570  0.40098596  0.92152826     0.66500
H1556       H  0.56612951  0.43973946  0.95560973     0.15400
H1557       H  0.71495457  0.40948458  0.93782971     0.15100
N1558       N  0.72546918  0.44772881  0.97171400     0.74200
O1559       O  0.51050967  0.35914355  0.92351161    -0.39200
O1560       O  0.55975261  0.43827050  0.91109593    -0.39200
O1561       O  0.71786138  0.41220454  0.98361595    -0.39900
O1562       O  0.77285743  0.48223901  0.96737307    -0.40000
C1563       C  0.82307715  0.66597153  0.00690669    -0.12200
C1564       C  0.81345916  0.70006592  0.01821214     0.04800
C1565       C  0.76126455  0.68096489  0.02526545    -0.07500
C1566       C  0.72061759  0.62896722  0.02101680    -0.08300
C1567       C  0.72986327  0.59503999  0.00938605    -0.02800
C1568       C  0.78227562  0.61419117  0.00243580     0.04000
N1569       N  0.79520621  0.58250883  0.99053733     0.66500
H1570       H  0.86240518  0.67997783  0.00100437     0.15400
H1571       H  0.68089520  0.61621744  0.02629427     0.15100
N1572       N  0.74751340  0.71482008  0.03560200     0.74200
O1573       O  0.79751656  0.59043088  0.97310549    -0.39200
O1574       O  0.81930540  0.56011742  0.99744065    -0.39200
O1575       O  0.72527169  0.73712341  0.02726016    -0.39900
O1576       O  0.74525275  0.71151596  0.05321161    -0.40000
C1577       C  0.48243459  0.46559768  0.04131016    -0.12200
C1578       C  0.43727940  0.41825929  0.03503539     0.04800
C1579       C  0.44378286  0.39061383  0.01977667    -0.07500
C1580       C  0.49406834  0.41078766  0.01127300    -0.08300
C1581       C  0.53910968  0.45839913  0.01748931    -0.02800
C1582       C  0.53254770  0.48583129  0.03279616     0.04000
N1583       N  0.57564821  0.53512759  0.03974717     0.66500
H1584       H  0.47914110  0.48805206  0.05289833     0.15400
H1585       H  0.49752388  0.38861462  0.99962242     0.15100
N1586       N  0.40018427  0.34199864  0.01260247     0.74200
O1587       O  0.57930850  0.57881769  0.03464436    -0.39200
O1588       O  0.60058483  0.53441336  0.05413638    -0.39200
O1589       O  0.37854083  0.34317549  0.99741302    -0.39900
O1590       O  0.39266174  0.29760132  0.01870441    -0.40000
C1591       C  0.14433036  0.42489734  0.59746457    -0.12200
C1592       C  0.13626613  0.45484979  0.58374929     0.04800
C1593       C  0.14978637  0.50833428  0.58779904    -0.07500
C1594       C  0.17234355  0.53093440  0.60509640    -0.08300
C1595       C  0.18176524  0.50128704  0.61855978    -0.02800
C1596       C  0.16647488  0.44735127  0.61475699     0.04000
N1597       N  0.17034193  0.41381863  0.62864833     0.66500
H1598       H  0.13194027  0.38315818  0.59501556     0.15400
H1599       H  0.18425394  0.57254441  0.60772171     0.15100
N1600       N  0.14302710  0.54111084  0.57431369     0.74200
O1601       O  0.13082491  0.38670089  0.63926522    -0.39200
O1602       O  0.20651866  0.40156355  0.62727094    -0.39200
O1603       O  0.10621597  0.55214141  0.57658596    -0.39900
O1604       O  0.18046860  0.56852163  0.56296063    -0.40000
C1605       C  0.05225919  0.27774306  0.52352077    -0.12200
C1606       C  0.08728196  0.30871705  0.53790999     0.04800
C1607       C  0.11881990  0.28958817  0.54651532    -0.07500
C1608       C  0.11184464  0.23927941  0.54151298    -0.08300
C1609       C  0.07344829  0.20643479  0.52820260    -0.02800
C1610       C  0.04489716  0.22742039  0.51867037     0.04000
N1611       N  0.00599298  0.19738795  0.50464829     0.66500
H1612       H  0.02820336  0.29135879  0.51635555     0.15400
H1613       H  0.13532269  0.22501642  0.54874298     0.15100
N1614       N  0.15711606  0.31955673  0.56071724     0.74200
O1615       O  0.95758728  0.16813011  0.50933337    -0.39200
O1616       O  0.01753929  0.20970324  0.48765414    -0.39200
O1617       O  0.14400027  0.30870013  0.57768918    -0.39900
O1618       O  0.20610231  0.34616686  0.55644359    -0.40000
C1619       C  0.91500790  0.69691139  0.49885310    -0.12200
C1620       C  0.91582140  0.71150864  0.51762339     0.04800
C1621       C  0.91121991  0.67542240  0.53181348    -0.07500
C1622       C  0.90586855  0.62558465  0.52697290    -0.08300
C1623       C  0.90451020  0.61090833  0.50809453    -0.02800
C1624       C  0.90999538  0.64773315  0.49398823     0.04000
N1625       N  0.91429912  0.63771693  0.47464957     0.66500
H1626       H  0.92066332  0.72492534  0.48773320     0.15400
H1627       H  0.90152852  0.59780425  0.53798551     0.15100
N1628       N  0.91047516  0.68827798  0.55109575     0.74200
O1629       O  0.87568043  0.62717124  0.46386035    -0.39200
O1630       O  0.96017092  0.65404037  0.46772215    -0.39200
O1631       O  0.87261952  0.69386465  0.55734894    -0.39900
O1632       O  0.95059779  0.70029387  0.56128939    -0.40000
C1633       C  0.83725738  0.49173785  0.44997159    -0.12200
C1634       C  0.83646845  0.45854648  0.46451594     0.04800
C1635       C  0.81327423  0.40283364  0.46117271    -0.07500
C1636       C  0.79118222  0.38178175  0.44368068    -0.08300
C1637       C  0.79119412  0.41497081  0.42933821    -0.02800
C1638       C  0.81496141  0.47059256  0.43251225     0.04000
N1639       N  0.81866961  0.50644946  0.41799181     0.66500
H1640       H  0.85634782  0.53465759  0.45196597     0.15400
H1641       H  0.77236554  0.33880966  0.44150474     0.15100
N1642       N  0.80966804  0.36656274  0.47551105     0.74200
O1643       O  0.78579788  0.52320875  0.41774321    -0.39200
O1644       O  0.86124185  0.53079582  0.40852916    -0.39200
O1645       O  0.76668224  0.34113606  0.48468284    -0.39900
O1646       O  0.84274132  0.35002437  0.47559874    -0.40000
C1647       C  0.96488845  0.43852859  0.50663723    -0.12200
C1648       C  0.94521226  0.46518861  0.51775832     0.04800
C1649       C  0.95843947  0.47303970  0.53690035    -0.07500
C1650       C  0.99203498  0.45575912  0.54435329    -0.08300
C1651       C  0.01319442  0.43066920  0.53308171    -0.02800
C1652       C  0.99869952  0.42152850  0.51404072     0.04000
N1653       N  0.02039182  0.39817576  0.50170224     0.66500
H1654       H  0.95575108  0.43258625  0.49182502     0.15400
H1655       H  0.00153656  0.46208772  0.55913244     0.15100
N1656       N  0.93717124  0.49716309  0.54908426     0.74200
O1657       O  0.99202794  0.34946008  0.49716222    -0.39200
O1658       O  0.06107933  0.42852045  0.49200316    -0.39200
O1659       O  0.89579301  0.46744429  0.55857895    -0.39900
O1660       O  0.96611548  0.54579357  0.55364348    -0.40000
C1661       C  0.72613600  0.61649644  0.85357481    -0.12200
C1662       C  0.73929221  0.63354281  0.87217704     0.04800
C1663       C  0.74833980  0.60115070  0.88477384    -0.07500
C1664       C  0.74405489  0.55329790  0.87861255    -0.08300
C1665       C  0.72871702  0.53478852  0.86020577    -0.02800
C1666       C  0.72016518  0.56751504  0.84750600     0.04000
N1667       N  0.70655286  0.55303942  0.82835951     0.66500
H1668       H  0.71970268  0.64107728  0.84361159     0.15400
H1669       H  0.74966259  0.52888869  0.88889950     0.15100
N1670       N  0.75734846  0.61326164  0.90427402     0.74200
O1671       O  0.65797396  0.52286255  0.82410895    -0.39200
O1672       O  0.73835511  0.58375589  0.81597558    -0.39200
O1673       O  0.71738400  0.59621156  0.91503248    -0.39900
O1674       O  0.80210952  0.62474371  0.91111655    -0.40000
C1675       C  0.77816971  0.80630185  0.92801697    -0.12200
C1676       C  0.80121877  0.78425465  0.91625762     0.04800
C1677       C  0.84913732  0.78645629  0.92178066    -0.07500
C1678       C  0.87222001  0.80922957  0.93896165    -0.08300
C1679       C  0.84915491  0.83100048  0.95086133    -0.02800
C1680       C  0.80158011  0.82960873  0.94517468     0.04000
N1681       N  0.77546602  0.84995724  0.95681372     0.66500
H1682       H  0.74100877  0.80443509  0.92407513     0.15400
H1683       H  0.90958397  0.81126509  0.94270763     0.15100
N1684       N  0.87681701  0.76884599  0.90970648     0.74200
O1685       O  0.78215557  0.89603938  0.95360926    -0.39200
O1686       O  0.73735038  0.81807405  0.96722645    -0.39200
O1687       O  0.90704200  0.80023994  0.89714226    -0.39900
O1688       O  0.88295212  0.73032189  0.91480506    -0.40000
C1689       C  0.50170199  0.74600453  0.79090047    -0.12200
C1690       C  0.50127340  0.79258945  0.79666884     0.04800
C1691       C  0.47518417  0.81232114  0.78509062    -0.07500
C1692       C  0.44910465  0.78454522  0.76880526    -0.08300
C1693       C  0.44879881  0.73754154  0.76319627    -0.02800
C1694       C  0.47629062  0.71874524  0.77444189     0.04000
N1695       N  0.47790994  0.67131102  0.76977281     0.66500
H1696       H  0.52157564  0.72983607  0.79929062     0.15400
H1697       H  0.42875457  0.80024581  0.76049810     0.15100
N1698       N  0.47483380  0.86065062  0.78935629     0.74200
O1699       O  0.51895223  0.67567213  0.76179601    -0.39200
O1700       O  0.44523458  0.62743903  0.77747311    -0.39200
O1701       O  0.50882243  0.90388571  0.78160921    -0.39900
O1702       O  0.43337503  0.85758304  0.79650436    -0.40000
C1703       C  0.52862460  0.95705492  0.83267102    -0.12200
C1704       C  0.55390784  0.93629451  0.84392188     0.04800
C1705       C  0.58255255  0.96626954  0.85981404    -0.07500
C1706       C  0.58880994  0.01698061  0.86314594    -0.08300
C1707       C  0.56704628  0.03936138  0.85102996    -0.02800
C1708       C  0.53474600  0.00762146  0.83597955     0.04000
N1709       N  0.50957793  0.02653275  0.82329556     0.66500
H1710       H  0.50511762  0.93486875  0.82067639     0.15400
H1711       H  0.61259333  0.03959386  0.87506910     0.15100
N1712       N  0.60608610  0.94663662  0.87280765     0.74200
O1713       O  0.53118364  0.04523599  0.80764657    -0.39200
O1714       O  0.46104914  0.01276571  0.82572631    -0.39200
O1715       O  0.65547157  0.96269824  0.87149119    -0.39900
O1716       O  0.58263906  0.92815094  0.88822373    -0.40000
C1717       C  0.65914316  0.79122723  0.87648756    -0.12200
C1718       C  0.68066305  0.76668678  0.86525611     0.04800
C1719       C  0.66787435  0.75933607  0.84605029    -0.07500
C1720       C  0.63478212  0.77716967  0.83851690    -0.08300
C1721       C  0.61323016  0.80191364  0.84976172    -0.02800
C1722       C  0.62516730  0.80809078  0.86907955     0.04000
N1723       N  0.60109656  0.82841927  0.88168333     0.66500
H1724       H  0.66719113  0.79569881  0.89138900     0.15400
H1725       H  0.62679914  0.77239956  0.82361695     0.15100
N1726       N  0.68967007  0.73586874  0.83380637     0.74200
O1727       O  0.55183910  0.79990353  0.88534890    -0.39200
O1728       O  0.63067203  0.86559631  0.89281665    -0.39200
O1729       O  0.66024369  0.68810617  0.82838102    -0.39900
O1730       O  0.73230308  0.76603634  0.82498996    -0.40000
C1731       C  0.06706927  0.29029427  0.69433952    -0.12200
C1732       C  0.07014193  0.26419843  0.67817556     0.04800
C1733       C  0.11887097  0.28801026  0.66808094    -0.07500
C1734       C  0.15890573  0.34020638  0.67237718    -0.08300
C1735       C  0.15385995  0.36839634  0.68756606    -0.02800
C1736       C  0.10899393  0.34090885  0.69944833     0.04000
N1737       N  0.10493840  0.36335882  0.71673805     0.66500
H1738       H  0.03170134  0.27168017  0.70310494     0.15400
H1739       H  0.19411258  0.35875194  0.66354723     0.15100
N1740       N  0.12952083  0.25959297  0.65389163     0.74200
O1741       O  0.07094517  0.37833069  0.71827452    -0.39200
O1742       O  0.12390583  0.35470480  0.73135791    -0.39200
O1743       O  0.13364146  0.27443853  0.63706390    -0.39900
O1744       O  0.14829053  0.23007992  0.65866661    -0.40000
C1745       C  0.01539129  0.15385074  0.61709611    -0.12200
C1746       C  0.97682720  0.12300180  0.63061936     0.04800
C1747       C  0.93835249  0.06922240  0.62635075    -0.07500
C1748       C  0.94007384  0.04723581  0.60907982    -0.08300
C1749       C  0.97942345  0.07776454  0.59575286    -0.02800
C1750       C  0.01671229  0.13197409  0.59976225     0.04000
N1751       N  0.05367674  0.16644054  0.58592395     0.66500
H1752       H  0.04384713  0.19576014  0.61974186     0.15400
H1753       H  0.91134000  0.00541699  0.60633740     0.15100
N1754       N  0.89858386  0.03552122  0.63963657     0.74200
O1755       O  0.03938333  0.19116409  0.57491198    -0.39200
O1756       O  0.10277705  0.18162285  0.58756851    -0.39200
O1757       O  0.85069030  0.02421523  0.63735733    -0.39900
O1758       O  0.90884875  0.00840506  0.65102466    -0.40000
C1759       C  0.52805350  0.95145715  0.71349588    -0.12200
C1760       C  0.57611041  0.96743371  0.70369239     0.04800
C1761       C  0.57584329  0.93305729  0.68951559    -0.07500
C1762       C  0.52964620  0.88393884  0.68606292    -0.08300
C1763       C  0.48269743  0.86672762  0.69656878    -0.02800
C1764       C  0.48197700  0.90191268  0.71023947     0.04000
N1765       N  0.43551970  0.88808383  0.72129565     0.66500
H1766       H  0.52599470  0.97701742  0.72415826     0.15400
H1767       H  0.53172048  0.85819518  0.67542609     0.15100
N1768       N  0.62189970  0.94616695  0.67848340     0.74200
O1769       O  0.43317035  0.87138294  0.73778144    -0.39200
O1770       O  0.40520607  0.90597370  0.71666750    -0.39200
O1771       O  0.65180107  0.92798924  0.68337184    -0.39900
O1772       O  0.62183944  0.95878871  0.66158101    -0.40000
C1773       C  0.71152490  0.16084249  0.75519200    -0.12200
C1774       C  0.66361781  0.11834940  0.74805436     0.04800
C1775       C  0.61546732  0.10329542  0.75788161    -0.07500
C1776       C  0.61649570  0.12982733  0.77441336    -0.08300
C1777       C  0.66451312  0.17167008  0.78174558    -0.02800
C1778       C  0.71254021  0.18751057  0.77168675     0.04000
N1779       N  0.76278469  0.23149180  0.77753915     0.66500
H1780       H  0.74911030  0.17381919  0.74798384     0.15400
H1781       H  0.57880767  0.11767159  0.78139100     0.15100
N1782       N  0.56471206  0.06203142  0.75123960     0.74200
O1783       O  0.79284270  0.22256541  0.78790158    -0.39200
O1784       O  0.78264391  0.27493950  0.76850454    -0.39200
O1785       O  0.54242742  0.01683928  0.75922695    -0.39900
O1786       O  0.53694014  0.07472876  0.74113407    -0.40000
C1787       C  0.82854684  0.10780989  0.67175009    -0.12200
C1788       C  0.87457962  0.14040473  0.68228522     0.04800
C1789       C  0.86817252  0.15561385  0.70047740    -0.07500
C1790       C  0.81659557  0.13756651  0.70760151    -0.08300
C1791       C  0.77034673  0.10371175  0.69713219    -0.02800
C1792       C  0.77718524  0.08916413  0.67888561     0.04000
N1793       N  0.73307291  0.05551221  0.66712164     0.66500
H1794       H  0.83199843  0.09647996  0.65758662     0.15400
H1795       H  0.81301486  0.14907764  0.72173235     0.15100
N1796       N  0.91307789  0.18740393  0.71226999     0.74200
O1797       O  0.70855436  0.07551689  0.65883454    -0.39200
O1798       O  0.73075794  0.01375860  0.66047648    -0.39200
O1799       O  0.92814874  0.23640017  0.71464705    -0.39900
O1800       O  0.92866703  0.16429327  0.72352076    -0.40000
loop_ 
_geom_bond_atom_site_label_1 
_geom_bond_atom_site_label_2 
_geom_bond_distance 
_geom_bond_site_symmetry_2 
_ccdc_geom_bond_type 
C1            N2   1.364       .  A
C1            N6   1.360       .  A
C1         C1760   1.494   1_545  S
N2            C3   1.364       .  A
C3            N4   1.358       .  A
C3         C1791   1.492       .  S
N4            C5   1.356       .  A
C5            N6   1.353       .  A
C5         C1774   1.492       .  S
C7            N8   1.353       .  A
C7           N12   1.357   1_655  A
C7         C1746   1.481       .  S
N8            C9   1.357       .  A
C9           N10   1.357       .  A
C9         C1788   1.487       .  S
N10          C11   1.363   1_655  A
C11          N12   1.359       .  A
C11        C1732   1.487       .  S
C13          N14   1.362       .  A
C13          N18   1.363       .  A
C13        C1704   1.493       .  S
N14          C15   1.361       .  A
C15          N16   1.357       .  A
C15        C1721   1.485       .  S
N16          C17   1.355       .  A
C17          N18   1.356       .  A
C17        C1690   1.495       .  S
C19          N20   1.361       .  A
C19          N24   1.358       .  A
C19        C1662   1.480       .  S
N20          C21   1.357       .  A
C21          N22   1.357       .  A
C21        C1718   1.479       .  S
N22          C23   1.355       .  A
C23          N24   1.356       .  A
C23        C1676   1.475       .  S
C25          N26   1.359       .  A
C25          N30   1.361       .  A
C25        C1623   1.483       .  S
N26          C27   1.357       .  A
C27          N28   1.352       .  A
C27        C1634   1.480       .  S
N28          C29   1.356       .  A
C29          N30   1.362       .  A
C29        C1648   1.478       .  S
C31          N32   1.351       .  A
C31          N36   1.361       .  A
C31        C1592   1.476       .  S
N32          C33   1.353       .  A
C33          N34   1.359       .  A
C33        C1651   1.481       .  S
N34          C35   1.364       .  A
C35          N36   1.359       .  A
C35        C1606   1.497       .  S
C37          N38   1.357       .  A
C37          N42   1.358       .  A
C37        C1550   1.474       .  S
N38          C39   1.358   1_556  A
C39          N40   1.357       .  A
C39        C1581   1.494       .  S
N40          C41   1.361       .  A
C41          N42   1.359   1_554  A
C41        C1567   1.488       .  S
C43          N44   1.359       .  A
C43          N48   1.356       .  A
C43        C1539   1.481       .  S
N44          C45   1.362       .  A
C45          N46   1.362       .  A
C45        C1522   1.491       .  S
N46          C47   1.358       .  A
C47          N48   1.358       .  A
C47        C1578   1.495       .  S
C49          N50   1.355       .  A
C49          N54   1.359   1_455  A
C49        C1483   1.477       .  S
N50          C51   1.353       .  A
C51          N52   1.359       .  A
C51        C1508   1.484       .  S
N52          C53   1.357   1_455  A
C53          N54   1.358       .  A
C53        C1494   1.480       .  S
C55          N56   1.357       .  A
C55          N60   1.360       .  A
C55        C1466   1.489       .  S
N56          C57   1.353       .  A
C57          N58   1.356       .  A
C57        C1511   1.486       .  S
N58          C59   1.356       .  A
C59          N60   1.364       .  A
C59        C1452   1.485       .  S
C61          N62   1.359       .  A
C61          N66   1.363       .  A
C61        C1424   1.487       .  S
N62          C63   1.361       .  A
C63          N64   1.357       .  A
C63        C1438   1.489       .  S
N64          C65   1.358       .  A
C65          N66   1.361       .  A
C65        C1410   1.488       .  S
C67          N68   1.358       .  A
C67          N72   1.359       .  A
C67        C1382   1.478       .  S
N68          C69   1.359       .  A
C69          N70   1.363       .  A
C69        C1441   1.489       .  S
N70          C71   1.363       .  A
C71          N72   1.358       .  A
C71        C1396   1.501   1_545  S
C73          N74   1.358       .  A
C73          N78   1.359       .  A
C73        C1340   1.478       .  S
N74          C75   1.357       .  A
C75          N76   1.355       .  A
C75        C1371   1.461       .  S
N76          C77   1.349       .  A
C77          N78   1.355       .  A
C77        C1354   1.477       .  S
C79          N80   1.358       .  A
C79          N84   1.349       .  A
C79        C1326   1.477       .  S
N80          C81   1.365       .  A
C81          N82   1.361       .  A
C81        C1312   1.490   1_565  S
N82          C83   1.356       .  A
C83          N84   1.348       .  A
C83        C1368   1.466       .  S
C85          N86   1.363       .  A
C85          N90   1.355       .  A
C85        C1284   1.486       .  S
N86          C87   1.364       .  A
C87          N88   1.358       .  A
C87        C1273   1.477       .  S
N88          C89   1.350       .  A
C89          N90   1.354       .  A
C89        C1298   1.480       .  S
C91          N92   1.355       .  A
C91          N96   1.352       .  A
C91        C1242   1.470       .  S
N92          C93   1.360       .  A
C93          N94   1.361       .  A
C93        C1256   1.476       .  S
N94          C95   1.360       .  A
C95          N96   1.355       .  A
C95        C1301   1.486       .  S
C97          N98   1.355       .  A
C97         N102   1.359       .  A
C97        C1217   1.480       .  S
N98          C99   1.355       .  A
C99         N100   1.361       .  A
C99        C1231   1.485       .  S
N100        C101   1.359       .  A
C101        N102   1.363       .  A
C101       C1203   1.496       .  S
C103        N104   1.366       .  A
C103        N108   1.356       .  A
C103       C1175   1.488       .  S
N104        C105   1.367       .  A
C105        N106   1.361       .  A
C105       C1186   1.497       .  S
N106        C107   1.356       .  A
C107        N108   1.351       .  A
C107       C1228   1.486       .  S
C109        N110   1.359       .  A
C109        N114   1.361   1_554  A
C109       C1144   1.477       .  S
N110        C111   1.360       .  A
C111        N112   1.356   1_554  A
C111       C1161   1.475   1_545  S
N112        C113   1.353       .  A
C113        N114   1.355       .  A
C113       C1130   1.484       .  S
C115        N116   1.360       .  A
C115        N120   1.364       .  A
C115       C1102   1.489       .  S
N116        C117   1.354       .  A
C117        N118   1.348       .  A
C117       C1116   1.473       .  S
N118        C119   1.355       .  A
C119        N120   1.363       .  A
C119       C1158   1.476       .  S
C121        N122   1.360       .  A
C121        N126   1.361       .  A
C121       C1063   1.480       .  S
N122        C123   1.360       .  A
C123        N124   1.355       .  A
C123       C1088   1.493       .  S
N124        C125   1.357       .  A
C125        N126   1.358       .  A
C125       C1077   1.482       .  S
C127        N128   1.357       .  A
C127        N132   1.362       .  A
C127       C1049   1.491       .  S
N128        C129   1.356       .  A
C129        N130   1.356       .  A
C129       C1091   1.494       .  S
N130        C131   1.363       .  A
C131        N132   1.364       .  A
C131       C1035   1.494       .  S
C133        N134   1.356       .  A
C133        N138   1.355       .  A
C133        C990   1.485       .  S
N134        C135   1.356       .  A
C135        N136   1.360       .  A
C135       C1018   1.478       .  S
N136        C137   1.355       .  A
C137        N138   1.361       .  A
C137       C1004   1.488       .  S
C139        N140   1.354   1_565  A
C139        N144   1.357       .  A
C139        C965   1.477       .  S
N140        C141   1.357       .  A
C141        N142   1.362   1_545  A
C141       C1021   1.478       .  S
N142        C143   1.359       .  A
C143        N144   1.359       .  A
C143        C976   1.490       .  S
C145        N146   1.360       .  A
C145        N150   1.354       .  A
C145        C934   1.481       .  S
N146        C147   1.360       .  A
C147        N148   1.356       .  A
C147        C923   1.491       .  S
N148        C149   1.360       .  A
C149        N150   1.356       .  A
C149        C948   1.473       .  S
C151        N152   1.353       .  A
C151        N156   1.357       .  A
C151        C909   1.481       .  S
N152        C153   1.352       .  A
C153        N154   1.359       .  A
C153        C951   1.470       .  S
N154        C155   1.356       .  A
C155        N156   1.360       .  A
C155        C892   1.484   1_565  S
C157        N158   1.355       .  A
C157        N162   1.360       .  A
C157        C864   1.474       .  S
N158        C159   1.353       .  A
C159        N160   1.354       .  A
C159        C881   1.481       .  S
N160        C161   1.361       .  A
C161        N162   1.360       .  A
C161        C853   1.486       .  S
C163        N164   1.366       .  A
C163        N168   1.364       .  A
C163        C822   1.498       .  S
N164        C165   1.364   1_565  A
C165        N166   1.355       .  A
C165        C878   1.488       .  S
N166        C167   1.351   1_545  A
C167        N168   1.356       .  A
C167        C836   1.494       .  S
C169        N170   1.357       .  A
C169        N174   1.359       .  A
C169        C783   1.487       .  S
N170        C171   1.359       .  A
C171        N172   1.359       .  A
C171        C808   1.488   1_545  S
N172        C173   1.362       .  A
C173        N174   1.362       .  A
C173        C794   1.482       .  S
C175        N176   1.358       .  A
C175        N180   1.356       .  A
C175        C752   1.494       .  S
N176        C177   1.362       .  A
C177        N178   1.365       .  A
C177        C811   1.497       .  S
N178        C179   1.366       .  A
C179        N180   1.362       .  A
C179        C766   1.499       .  S
C181        N182   1.353       .  A
C181        N186   1.359       .  A
C181        C710   1.479       .  S
N182        C183   1.352       .  A
C183        N184   1.358       .  A
C183        C741   1.479       .  S
N184        C185   1.361       .  A
C185        N186   1.363       .  A
C185        C724   1.482       .  S
C187        N188   1.365   1_455  A
C187        N192   1.359       .  A
C187        C682   1.492       .  S
N188        C189   1.360       .  A
C189        N190   1.354       .  A
C189        C738   1.486       .  S
N190        C191   1.349       .  A
C191        N192   1.358   1_655  A
C191        C696   1.475       .  S
C193        N194   1.365       .  A
C193        N198   1.360   1_556  A
C193        C640   1.490   1_556  S
N194        C195   1.364       .  A
C195        N196   1.356       .  A
C195        C654   1.489       .  S
N196        C197   1.358   1_556  A
C197        N198   1.359       .  A
C197        C668   1.481       .  S
C199        N200   1.361       .  A
C199        N204   1.360       .  A
C199        C626   1.496       .  S
N200        C201   1.358       .  A
C201        N202   1.357       .  A
C201        C671   1.486       .  S
N202        C203   1.356       .  A
C203        N204   1.362       .  A
C203        C615   1.487       .  S
C205        N206   1.361       .  A
C205        N210   1.360       .  A
C205        C584   1.500       .  S
N206        C207   1.361       .  A
C207        N208   1.361       .  A
C207        C573   1.496       .  S
N208        C209   1.363       .  A
C209        N210   1.364       .  A
C209        C601   1.489       .  S
C211        N212   1.363       .  A
C211        N216   1.360   1_655  A
C211        C542   1.479       .  S
N212        C213   1.363       .  A
C213        N214   1.359   1_655  A
C213        C556   1.486       .  S
N214        C215   1.356       .  A
C215        N216   1.352       .  A
C215        C598   1.480       .  S
O217        C228   1.288       .  A
O217       Eu253   2.443       .  S
O218        C229   1.287       .  A
O218       Eu252   2.438       .  S
O219        C230   1.284       .  A
O219       Eu225   2.421       .  S
O220        C231   1.285       .  A
O220       Eu225   2.429       .  S
O221        C231   1.290       .  A
O221       Eu255   2.444       .  S
O222        C230   1.295       .  A
O222       Eu254   2.470       .  S
O223        C229   1.293       .  A
O223       Eu225   2.461       .  S
O224        C228   1.294       .  A
O224       Eu225   2.468       .  S
Eu225       O235   2.350       .  S
Eu225       O227   2.354       .  S
Eu225       O226   2.344       .  S
Eu225       O233   2.348       .  S
O226       Eu255   2.345       .  S
O226       Eu252   2.341       .  S
O227       Eu253   2.349       .  S
O227       Eu254   2.354       .  S
C228       C1777   1.493       .  S
C229       C1315   1.483       .  S
C230       C1707   1.487       .  S
C231        C867   1.470       .  S
H232        O233   0.965       .  S
O233       Eu254   2.348       .  S
O233       Eu252   2.365       .  S
H234        O235   0.966       .  S
O235       Eu253   2.348       .  S
O235       Eu255   2.350       .  S
O236        C259   1.291       .  A
O236       Eu252   2.456       .  S
O237        C260   1.284       .  A
O237       Eu253   2.421       .  S
O238        C261   1.293       .  A
O238       Eu254   2.471       .  S
O239        C262   1.290       .  A
O239       Eu255   2.452       .  S
O240        C263   1.293       .  A
O240       Eu255   2.470       .  S
O241        C264   1.292       .  A
O241       Eu254   2.463       .  S
O242        C265   1.298       .  A
O242       Eu256   2.498       .  S
O243        C266   1.293       .  A
O243       Eu256   2.453       .  S
O244        C265   1.289       .  A
O244       Eu254   2.450       .  S
O245        C266   1.290       .  A
O245       Eu255   2.456       .  S
O246        C261   1.291       .  A
O246       Eu252   2.451       .  S
O247        C264   1.291       .  A
O247       Eu253   2.462       .  S
O248        C263   1.290       .  A
O248       Eu253   2.450       .  S
O249        C262   1.298       .  A
O249       Eu252   2.496       .  S
O250        C259   1.290       .  A
O250       Eu256   2.443       .  S
O251        C260   1.293       .  A
O251       Eu256   2.459       .  S
Eu252       O270   2.341       .  S
Eu252       O258   2.358       .  S
Eu253       O257   2.350       .  S
Eu253       O268   2.347       .  S
Eu254       O268   2.349       .  S
Eu254       O258   2.356       .  S
Eu255       O257   2.346       .  S
Eu255       O270   2.357       .  S
Eu256       O257   2.348       .  S
Eu256       O268   2.334       .  S
Eu256       O270   2.364       .  S
Eu256       O258   2.344       .  S
C259       C1553   1.475       .  S
C260       C1343   1.478       .  S
C261       C1133   1.483       .  S
C262        C587   1.503       .  S
C263       C1245   1.483       .  S
C264        C559   1.483       .  S
C265        C657   1.486       .  S
C266       C1665   1.485       .  S
H267        O268   0.965       .  S
H269        O270   0.965       .  S
O271        C282   1.291       .  A
O271       Eu307   2.447   1_556  S
O272        C283   1.297       .  A
O272       Eu306   2.483       .  S
O273        C284   1.292       .  A
O273       Eu279   2.456       .  S
O274        C285   1.289       .  A
O274       Eu279   2.446   1_546  S
O275        C285   1.292   1_455  A
O275       Eu309   2.459   1_556  S
O276        C284   1.290       .  A
O276       Eu308   2.456       .  S
O277        C283   1.288       .  A
O277       Eu279   2.442   1_545  S
O278        C282   1.290       .  A
O278       Eu279   2.453   1_556  S
Eu279       O289   2.352   1_554  S
Eu279       O281   2.345       .  S
Eu279       O280   2.346   1_565  S
Eu279       O287   2.357       .  S
O280       Eu309   2.339   1_655  S
O280       Eu306   2.337       .  S
O281       Eu307   2.350       .  S
O281       Eu308   2.344       .  S
C282       C1679   1.481       .  S
C283        C643   1.488       .  S
C284       C1105   1.489       .  S
C285        C545   1.474       .  S
H286        O287   0.965       .  S
O287       Eu308   2.366       .  S
O287       Eu306   2.342   1_565  S
H288        O289   0.966       .  S
O289       Eu307   2.354   1_556  S
O289       Eu309   2.350   1_666  S
O290        C313   1.290       .  A
O290       Eu306   2.440   1_455  S
O291        C314   1.293       .  A
O291       Eu307   2.470   1_455  S
O292        C315   1.284       .  A
O292       Eu308   2.417       .  S
O293        C316   1.293       .  A
O293       Eu309   2.473       .  S
O294        C317   1.288       .  A
O294       Eu309   2.435   1_566  S
O295        C318   1.289       .  A
O295       Eu308   2.448       .  S
O296        C319   1.285   1_455  A
O296       Eu310   2.424       .  S
O297        C320   1.291   1_565  A
O297       Eu310   2.457       .  S
O298        C319   1.294       .  A
O298       Eu308   2.471       .  S
O299        C320   1.288       .  A
O299       Eu309   2.439       .  S
O300        C315   1.297   1_545  A
O300       Eu306   2.483       .  S
O301        C318   1.291       .  A
O301       Eu307   2.449       .  S
O302        C317   1.291       .  A
O302       Eu307   2.459   1_456  S
O303        C316   1.290       .  A
O303       Eu306   2.443   1_455  S
O304        C313   1.297       .  A
O304       Eu310   2.492   1_545  S
O305        C314   1.293       .  A
O305       Eu310   2.465       .  S
Eu306       O324   2.361   1_655  S
Eu306       O312   2.340   1_545  S
Eu307       O311   2.347   1_655  S
Eu307       O322   2.353       .  S
Eu308       O322   2.348       .  S
Eu308       O312   2.341       .  S
Eu309       O311   2.352   1_545  S
Eu309       O324   2.346       .  S
Eu310       O311   2.345       .  S
Eu310       O322   2.368   1_455  S
Eu310       O324   2.340   1_565  S
Eu310       O312   2.345   1_455  S
C313       C1413   1.496       .  S
C314        C629   1.497       .  S
C315        C962   1.483       .  S
C316       C1525   1.493       .  S
C317       C1329   1.482       .  S
C318       C1564   1.482       .  S
C319        C699   1.479       .  S
C320       C1147   1.480       .  S
H321        O322   0.965       .  S
H323        O324   0.965       .  S
O325        C336   1.289       .  A
O325       Eu361   2.446       .  S
O326        C337   1.295       .  A
O326       Eu360   2.474       .  S
O327        C338   1.291       .  A
O327       Eu333   2.452       .  S
O328        C339   1.288       .  A
O328       Eu333   2.445       .  S
O329        C339   1.291       .  A
O329       Eu363   2.447       .  S
O330        C338   1.293       .  A
O330       Eu362   2.472       .  S
O331        C337   1.288       .  A
O331       Eu333   2.446       .  S
O332        C336   1.291       .  A
O332       Eu333   2.452       .  S
Eu333       O343   2.357       .  S
Eu333       O335   2.339       .  S
Eu333       O334   2.347       .  S
Eu333       O341   2.348       .  S
O334       Eu363   2.351       .  S
O334       Eu360   2.336       .  S
O335       Eu361   2.357       .  S
O335       Eu362   2.348       .  S
C336       C1637   1.471       .  S
C337        C895   1.490       .  S
C338        C780   1.491       .  S
C339       C1032   1.486       .  S
H340        O341   0.965       .  S
O341       Eu362   2.336       .  S
O341       Eu360   2.353       .  S
H342        O343   0.965       .  S
O343       Eu361   2.361       .  S
O343       Eu363   2.354       .  S
O344        C367   1.290       .  A
O344       Eu360   2.453       .  S
O345        C368   1.296       .  A
O345       Eu361   2.481       .  S
O346        C369   1.293       .  A
O346       Eu362   2.462       .  S
O347        C370   1.291       .  A
O347       Eu363   2.448       .  S
O348        C371   1.293       .  A
O348       Eu363   2.462       .  S
O349        C372   1.287       .  A
O349       Eu362   2.430       .  S
O350        C373   1.292       .  A
O350       Eu364   2.461       .  S
O351        C374   1.287       .  A
O351       Eu364   2.431       .  S
O352        C373   1.290       .  A
O352       Eu362   2.452       .  S
O353        C374   1.294       .  A
O353       Eu363   2.478       .  S
O354        C369   1.287       .  A
O354       Eu360   2.433       .  S
O355        C372   1.295       .  A
O355       Eu361   2.480       .  S
O356        C371   1.290       .  A
O356       Eu361   2.456       .  S
O357        C370   1.292       .  A
O357       Eu360   2.468       .  S
O358        C367   1.294       .  A
O358       Eu364   2.467       .  S
O359        C368   1.289       .  A
O359       Eu364   2.446       .  S
Eu360       O378   2.351       .  S
Eu360       O366   2.365       .  S
Eu361       O365   2.348       .  S
Eu361       O376   2.343       .  S
Eu362       O376   2.361       .  S
Eu362       O366   2.350       .  S
Eu363       O365   2.339       .  S
Eu363       O378   2.345       .  S
Eu364       O365   2.350       .  S
Eu364       O376   2.352       .  S
Eu364       O378   2.354       .  S
Eu364       O366   2.345       .  S
C367       C1385   1.484       .  S
C368        C920   1.496       .  S
C369       C1455   1.481       .  S
C370        C993   1.491       .  S
C371       C1497   1.480       .  S
C372       C1214   1.475       .  S
C373       C1074   1.476       .  S
C374        C713   1.487       .  S
H375        O376   0.965       .  S
H377        O378   0.966       .  S
O379        C390   1.288       .  A
O379       Eu415   2.444       .  S
O380        C391   1.292       .  A
O380       Eu414   2.467       .  S
O381        C392   1.290       .  A
O381       Eu387   2.448       .  S
O382        C393   1.293       .  A
O382       Eu387   2.470       .  S
O383        C393   1.293       .  A
O383       Eu417   2.466       .  S
O384        C392   1.290       .  A
O384       Eu416   2.451       .  S
O385        C391   1.287       .  A
O385       Eu387   2.428       .  S
O386        C390   1.293       .  A
O386       Eu387   2.459       .  S
Eu387       O397   2.343       .  S
Eu387       O389   2.347       .  S
Eu387       O388   2.342       .  S
Eu387       O395   2.361       .  S
O388       Eu417   2.332       .  S
O388       Eu414   2.344       .  S
O389       Eu415   2.355       .  S
O389       Eu416   2.347       .  S
C390       C1763   1.488       .  S
C391       C1172   1.475       .  S
C392       C1270   1.474       .  S
C393        C755   1.489       .  S
H394        O395   0.965       .  S
O395       Eu416   2.352       .  S
O395       Eu414   2.346       .  S
H396        O397   0.966       .  S
O397       Eu415   2.360       .  S
O397       Eu417   2.355       .  S
O398        C421   1.291       .  A
O398       Eu414   2.449       .  S
O399        C422   1.292       .  A
O399       Eu415   2.461       .  S
O400        C423   1.291       .  A
O400       Eu416   2.454       .  S
O401        C424   1.292       .  A
O401       Eu417   2.459       .  S
O402        C425   1.289       .  A
O402       Eu417   2.445       .  S
O403        C426   1.292       .  A
O403       Eu416   2.468       .  S
O404        C427   1.296       .  A
O404       Eu418   2.483       .  S
O405        C428   1.291       .  A
O405       Eu418   2.459       .  S
O406        C427   1.287       .  A
O406       Eu416   2.435       .  S
O407        C428   1.290       .  A
O407       Eu417   2.444       .  S
O408        C423   1.288       .  A
O408       Eu414   2.439       .  S
O409        C426   1.292       .  A
O409       Eu415   2.456       .  S
O410        C425   1.296       .  A
O410       Eu415   2.477       .  S
O411        C424   1.286       .  A
O411       Eu414   2.427       .  S
O412        C421   1.290       .  A
O412       Eu418   2.454       .  S
O413        C422   1.288       .  A
O413       Eu418   2.438       .  S
Eu414       O432   2.351       .  S
Eu414       O420   2.341       .  S
Eu415       O419   2.338       .  S
Eu415       O430   2.357       .  S
Eu416       O430   2.356       .  S
Eu416       O420   2.348       .  S
Eu417       O419   2.349       .  S
Eu417       O432   2.353       .  S
Eu418       O419   2.353       .  S
Eu418       O430   2.353       .  S
Eu418       O432   2.357       .  S
Eu418       O420   2.335       .  S
C421       C1735   1.489       .  S
C422       C1357   1.474       .  S
C423        C850   1.479       .  S
C424       C1595   1.472       .  S
C425        C825   1.494       .  S
C426       C1693   1.494       .  S
C427        C570   1.481       .  S
C428       C1259   1.473       .  S
H429        O430   0.966       .  S
H431        O432   0.966       .  S
O433        C444   1.291       .  A
O433       Eu469   2.451       .  S
O434        C445   1.294       .  A
O434       Eu468   2.474       .  S
O435        C446   1.287       .  A
O435       Eu441   2.431       .  S
O436        C447   1.293       .  A
O436       Eu441   2.463       .  S
O437        C447   1.287       .  A
O437       Eu471   2.440       .  S
O438        C446   1.294       .  A
O438       Eu470   2.468       .  S
O439        C445   1.290       .  A
O439       Eu441   2.449       .  S
O440        C444   1.293       .  A
O440       Eu441   2.469       .  S
Eu441       O451   2.335       .  S
Eu441       O443   2.350       .  S
Eu441       O442   2.342       .  S
Eu441       O449   2.370       .  S
O442       Eu471   2.355       .  S
O442       Eu468   2.350       .  S
O443       Eu469   2.337       .  S
O443       Eu470   2.350       .  S
C444       C1536   1.483       .  S
C445        C979   1.490       .  S
C446       C1119   1.474       .  S
C447        C727   1.478       .  S
H448        O449   0.966       .  S
O449       Eu470   2.357       .  S
O449       Eu468   2.355       .  S
H450        O451   0.965       .  S
O451       Eu469   2.357       .  S
O451       Eu471   2.345       .  S
O452        C475   1.291       .  A
O452       Eu468   2.454       .  S
O453        C476   1.291       .  A
O453       Eu469   2.448       .  S
O454        C477   1.292       .  A
O454       Eu470   2.468       .  S
O455        C478   1.288       .  A
O455       Eu471   2.442       .  S
O456        C479   1.294       .  A
O456       Eu471   2.477       .  S
O457        C480   1.289       .  A
O457       Eu470   2.445       .  S
O458        C481   1.293       .  A
O458       Eu472   2.474       .  S
O459        C482   1.291       .  A
O459       Eu472   2.446       .  S
O460        C481   1.292       .  A
O460       Eu470   2.459       .  S
O461        C482   1.288       .  A
O461       Eu471   2.447       .  S
O462        C477   1.294       .  A
O462       Eu468   2.469       .  S
O463        C480   1.294       .  A
O463       Eu469   2.468       .  S
O464        C479   1.289       .  A
O464       Eu469   2.438       .  S
O465        C478   1.294       .  A
O465       Eu468   2.468       .  S
O466        C475   1.294       .  A
O466       Eu472   2.474       .  S
O467        C476   1.293       .  A
O467       Eu472   2.474       .  S
Eu468       O486   2.358       .  S
Eu468       O474   2.349       .  S
Eu469       O473   2.350       .  S
Eu469       O484   2.349       .  S
Eu470       O484   2.360       .  S
Eu470       O474   2.343       .  S
Eu471       O473   2.349       .  S
Eu471       O486   2.359       .  S
Eu472       O473   2.355       .  S
Eu472       O484   2.354       .  S
Eu472       O486   2.354       .  S
Eu472       O474   2.347       .  S
C475       C1469   1.495       .  S
C476       C1007   1.492       .  S
C477       C1399   1.502       .  S
C478        C937   1.477       .  S
C479       C1427   1.482       .  S
C480        C612   1.482       .  S
C481        C685   1.499       .  S
C482       C1046   1.472       .  S
H483        O484   0.965       .  S
H485        O486   0.965       .  S
O487        C498   1.290   1_455  A
O487       Eu523   2.451       .  S
O488        C499   1.288       .  A
O488       Eu522   2.444       .  S
O489        C500   1.294   1_565  A
O489       Eu495   2.477       .  S
O490        C501   1.290       .  A
O490       Eu495   2.446       .  S
O491        C501   1.292       .  A
O491       Eu525   2.465   1_655  S
O492        C500   1.291       .  A
O492       Eu524   2.454       .  S
O493        C499   1.293       .  A
O493       Eu495   2.464       .  S
O494        C498   1.294       .  A
O494       Eu495   2.466   1_545  S
Eu495       O505   2.355       .  S
Eu495       O497   2.348   1_565  S
Eu495       O496   2.352       .  S
Eu495       O503   2.350       .  S
O496       Eu525   2.345   1_655  S
O496       Eu522   2.348       .  S
O497       Eu523   2.357   1_655  S
O497       Eu524   2.342       .  S
C498       C1749   1.480       .  S
C499       C1189   1.487       .  S
C500        C797   1.488       .  S
C501       C1287   1.478       .  S
H502        O503   0.972       .  S
O503       Eu524   2.355   1_565  S
O503       Eu522   2.342       .  S
H504        O505   0.975       .  S
O505       Eu523   2.359   1_665  S
O505       Eu525   2.354   1_655  S
O506        C529   1.287   1_655  A
O506       Eu522   2.431       .  S
O507        C530   1.296       .  A
O507       Eu523   2.480       .  S
O508        C531   1.288       .  A
O508       Eu524   2.433   1_565  S
O509        C532   1.293       .  A
O509       Eu525   2.469   1_655  S
O510        C533   1.288       .  A
O510       Eu525   2.435       .  S
O511        C534   1.290       .  A
O511       Eu524   2.452   1_455  S
O512        C535   1.289       .  A
O512       Eu526   2.448   1_545  S
O513        C536   1.294       .  A
O513       Eu526   2.464       .  S
O514        C535   1.293       .  A
O514       Eu524   2.466   1_455  S
O515        C536   1.289       .  A
O515       Eu525   2.448       .  S
O516        C531   1.292       .  A
O516       Eu522   2.466       .  S
O517        C534   1.294       .  A
O517       Eu523   2.472       .  S
O518        C533   1.295   1_545  A
O518       Eu523   2.482       .  S
O519        C532   1.288       .  A
O519       Eu522   2.437       .  S
O520        C529   1.294       .  A
O520       Eu526   2.474       .  S
O521        C530   1.289       .  A
O521       Eu526   2.447   1_545  S
Eu522       O540   2.352   1_655  S
Eu522       O528   2.342       .  S
Eu523       O527   2.358   1_545  S
Eu523       O538   2.350       .  S
Eu524       O538   2.341   1_655  S
Eu524       O528   2.346   1_545  S
Eu525       O527   2.363       .  S
Eu525       O540   2.350       .  S
Eu526       O527   2.358       .  S
Eu526       O538   2.360   1_565  S
Eu526       O540   2.335       .  S
Eu526       O528   2.347   1_455  S
C529       C1480   1.485       .  S
C530       C1200   1.496       .  S
C531        C906   1.487       .  S
C532       C1620   1.479       .  S
C533        C839   1.491       .  S
C534       C1609   1.496       .  S
C535       C1060   1.482       .  S
C536        C769   1.492       .  S
H537        O538   0.970       .  S
H539        O540   0.981       .  S
C541        C542   1.403   1_455  A
C541        C546   1.393       .  A
C541        H548   1.084       .  S
C542        C543   1.414       .  A
C543        C544   1.402       .  A
C543        N550   1.429       .  S
C544        C545   1.405       .  A
C544        H549   1.084       .  S
C545        C546   1.407   1_655  A
C546        N547   1.427       .  S
N547        O551   1.262       .  A
N547        O552   1.262       .  A
N550        O554   1.262       .  A
N550        O553   1.261       .  A
C555        C556   1.404       .  A
C555        C560   1.398       .  A
C555        H562   1.084       .  S
C556        C557   1.413       .  A
C557        C558   1.403       .  A
C557        N564   1.427       .  S
C558        C559   1.404       .  A
C558        H563   1.084       .  S
C559        C560   1.414       .  A
C560        N561   1.428       .  S
N561        O565   1.262       .  A
N561        O566   1.261       .  A
N564        O568   1.262       .  A
N564        O567   1.261       .  A
C569        C570   1.397       .  A
C569        C574   1.399       .  A
C569        H576   1.084       .  S
C570        C571   1.412       .  A
C571        C572   1.403       .  A
C571        N578   1.429       .  S
C572        C573   1.409       .  A
C572        H577   1.084       .  S
C573        C574   1.417       .  A
C574        N575   1.425       .  S
N575        O579   1.262       .  A
N575        O580   1.262       .  A
N578        O582   1.262       .  A
N578        O581   1.262       .  A
C583        C584   1.404       .  A
C583        C588   1.400       .  A
C583        H590   1.084       .  S
C584        C585   1.417       .  A
C585        C586   1.410       .  A
C585        N592   1.428       .  S
C586        C587   1.408       .  A
C586        H591   1.084       .  S
C587        C588   1.419       .  A
C588        N589   1.428       .  S
N589        O593   1.261       .  A
N589        O594   1.262       .  A
N592        O596   1.262       .  A
N592        O595   1.262       .  A
C597        C598   1.399       .  A
C597        C602   1.399       .  A
C597        H604   1.084       .  S
C598        C599   1.411       .  A
C599        C600   1.403       .  A
C599        N606   1.429       .  S
C600        C601   1.407       .  A
C600        H605   1.084       .  S
C601        C602   1.415       .  A
C602        N603   1.427       .  S
N603        O607   1.262       .  A
N603        O608   1.262       .  A
N606        O610   1.262       .  A
N606        O609   1.262       .  A
C611        C612   1.403       .  A
C611        C616   1.400       .  A
C611        H618   1.084       .  S
C612        C613   1.413       .  A
C613        C614   1.398       .  A
C613        N620   1.429       .  S
C614        C615   1.404       .  A
C614        H619   1.083       .  S
C615        C616   1.417       .  A
C616        N617   1.430       .  S
N617        O621   1.262       .  A
N617        O622   1.262       .  A
N620        O624   1.262       .  A
N620        O623   1.262       .  A
C625        C626   1.405       .  A
C625        C630   1.399       .  A
C625        H632   1.083       .  S
C626        C627   1.416       .  A
C627        C628   1.404       .  A
C627        N634   1.429       .  S
C628        C629   1.409       .  A
C628        H633   1.084       .  S
C629        C630   1.416       .  A
C630        N631   1.427       .  S
N631        O635   1.261   1_554  A
N631        O636   1.261   1_455  A
N634        O638   1.262       .  A
N634        O637   1.262       .  A
C639        C640   1.405   1_556  A
C639        C644   1.405   1_556  A
C639        H646   1.084       .  S
C640        C641   1.415       .  A
C641        C642   1.401       .  A
C641        N648   1.430   1_655  S
C642        C643   1.404       .  A
C642        H647   1.084       .  S
C643        C644   1.416       .  A
C644        N645   1.429       .  S
N645        O649   1.262       .  A
N645        O650   1.262   1_554  A
N648        O652   1.262   1_554  A
N648        O651   1.261       .  A
C653        C654   1.401       .  A
C653        C658   1.402       .  A
C653        H660   1.084       .  S
C654        C655   1.417       .  A
C655        C656   1.406       .  A
C655        N662   1.429       .  S
C656        C657   1.401       .  A
C656        H661   1.084       .  S
C657        C658   1.414       .  A
C658        N659   1.426       .  S
N659        O663   1.261       .  A
N659        O664   1.261       .  A
N662        O666   1.262       .  A
N662        O665   1.262       .  A
C667        C668   1.404       .  A
C667        C672   1.399   1_655  A
C667        H674   1.084   1_554  S
C668        C669   1.412       .  A
C669        C670   1.400   1_655  A
C669        N676   1.429       .  S
C670        C671   1.406       .  A
C670        H675   1.084       .  S
C671        C672   1.413       .  A
C672        N673   1.429   1_554  S
N673        O677   1.262       .  A
N673        O678   1.262       .  A
N676        O680   1.262       .  A
N676        O679   1.261       .  A
C681        C682   1.401       .  A
C681        C686   1.399       .  A
C681        H688   1.082       .  S
C682        C683   1.415       .  A
C683        C684   1.402       .  A
C683        N690   1.429       .  S
C684        C685   1.408       .  A
C684        H689   1.082       .  S
C685        C686   1.416       .  A
C686        N687   1.424       .  S
N687        O691   1.261       .  A
N687        O692   1.257       .  A
N690        O694   1.262       .  A
N690        O693   1.262       .  A
C695        C696   1.397   1_455  A
C695        C700   1.393       .  A
C695        H702   1.084       .  S
C696        C697   1.416       .  A
C697        C698   1.398       .  A
C697        N704   1.429       .  S
C698        C699   1.401       .  A
C698        H703   1.084       .  S
C699        C700   1.416   1_655  A
C700        N701   1.426       .  S
N701        O705   1.262       .  A
N701        O706   1.262       .  A
N704        O708   1.262       .  A
N704        O707   1.262       .  A
C709        C710   1.406       .  A
C709        C714   1.397       .  A
C709        H716   1.084       .  S
C710        C711   1.408       .  A
C711        C712   1.399       .  A
C711        N718   1.429       .  S
C712        C713   1.411       .  A
C712        H717   1.084       .  S
C713        C714   1.411       .  A
C714        N715   1.428       .  S
N715        O719   1.262       .  A
N715        O720   1.262       .  A
N718        O722   1.262       .  A
N718        O721   1.262       .  A
C723        C724   1.405       .  A
C723        C728   1.401       .  A
C723        H730   1.084       .  S
C724        C725   1.415       .  A
C725        C726   1.397       .  A
C725        N732   1.430       .  S
C726        C727   1.402       .  A
C726        H731   1.085       .  S
C727        C728   1.412       .  A
C728        N729   1.429       .  S
N729        O733   1.262       .  A
N729        O734   1.261       .  A
N732        O736   1.262       .  A
N732        O735   1.262       .  A
C737        C738   1.407       .  A
C737        C742   1.393       .  A
C737        H744   1.081       .  S
C738        C739   1.413       .  A
C739        C740   1.400       .  A
C739        N746   1.429       .  S
C740        C741   1.408       .  A
C740        H745   1.084       .  S
C741        C742   1.407       .  A
C742        N743   1.428       .  S
N743        O747   1.261       .  A
N743        O748   1.262       .  A
N746        O750   1.262       .  A
N746        O749   1.262       .  A
C751        C752   1.407       .  A
C751        C756   1.405       .  A
C751        H758   1.084       .  S
C752        C753   1.417       .  A
C753        C754   1.402       .  A
C753        N760   1.429       .  S
C754        C755   1.402       .  A
C754        H759   1.081       .  S
C755        C756   1.412       .  A
C756        N757   1.429       .  S
N757        O761   1.262       .  A
N757        O762   1.262       .  A
N760        O764   1.262       .  A
N760        O763   1.262       .  A
C765        C766   1.409       .  A
C765        C770   1.401       .  A
C765        H772   1.082       .  S
C766        C767   1.415       .  A
C767        C768   1.399       .  A
C767        N774   1.423       .  S
C768        C769   1.403       .  A
C768        H773   1.084       .  S
C769        C770   1.415       .  A
C770        N771   1.429       .  S
N771        O775   1.262       .  A
N771        O776   1.262       .  A
N774        O778   1.262       .  A
N774        O777   1.262       .  A
C779        C780   1.408       .  A
C779        C784   1.400       .  A
C779        H786   1.084       .  S
C780        C781   1.414       .  A
C781        C782   1.404       .  A
C781        N788   1.429       .  S
C782        C783   1.407       .  A
C782        H787   1.084       .  S
C783        C784   1.411       .  A
C784        N785   1.428       .  S
N785        O789   1.262       .  A
N785        O790   1.262       .  A
N788        O792   1.262       .  A
N788        O791   1.262       .  A
C793        C794   1.405       .  A
C793        C798   1.405       .  A
C793        H800   1.084       .  S
C794        C795   1.411       .  A
C795        C796   1.397       .  A
C795        N802   1.430       .  S
C796        C797   1.407       .  A
C796        H801   1.084       .  S
C797        C798   1.413       .  A
C798        N799   1.428       .  S
N799        O803   1.262       .  A
N799        O804   1.262   1_545  A
N802        O806   1.262   1_545  A
N802        O805   1.261       .  A
C807        C808   1.401       .  A
C807        C812   1.399       .  A
C807        H814   1.084       .  S
C808        C809   1.412       .  A
C809        C810   1.405       .  A
C809        N816   1.429       .  S
C810        C811   1.411       .  A
C810        H815   1.083       .  S
C811        C812   1.416       .  A
C812        N813   1.427       .  S
N813        O817   1.262       .  A
N813        O818   1.262       .  A
N816        O820   1.262       .  A
N816        O819   1.262   1_565  A
C821        C822   1.406       .  A
C821        C826   1.398       .  A
C821        H828   1.082       .  S
C822        C823   1.416       .  A
C823        C824   1.402       .  A
C823        N830   1.425       .  S
C824        C825   1.406       .  A
C824        H829   1.084       .  S
C825        C826   1.417       .  A
C826        N827   1.430       .  S
N827        O831   1.261       .  A
N827        O832   1.261       .  A
N830        O834   1.262       .  A
N830        O833   1.262       .  A
C835        C836   1.411   1_545  A
C835        C840   1.400       .  A
C835        H842   1.083       .  S
C836        C837   1.414       .  A
C837        C838   1.399       .  A
C837        N844   1.429       .  S
C838        C839   1.408       .  A
C838        H843   1.082       .  S
C839        C840   1.411   1_565  A
C840        N841   1.429       .  S
N841        O845   1.262       .  A
N841        O846   1.262       .  A
N844        O848   1.262       .  A
N844        O847   1.262       .  A
C849        C850   1.400       .  A
C849        C854   1.399       .  A
C849        H856   1.082       .  S
C850        C851   1.411       .  A
C851        C852   1.392       .  A
C851        N858   1.425       .  S
C852        C853   1.403       .  A
C852        H857   1.083       .  S
C853        C854   1.415       .  A
C854        N855   1.424       .  S
N855        O859   1.262       .  A
N855        O860   1.262       .  A
N858        O862   1.261       .  A
N858        O861   1.262       .  A
C863        C864   1.408       .  A
C863        C868   1.399       .  A
C863        H870   1.084       .  S
C864        C865   1.409       .  A
C865        C866   1.388       .  A
C865        N872   1.427       .  S
C866        C867   1.399       .  A
C866        H871   1.084       .  S
C867        C868   1.411       .  A
C868        N869   1.430       .  S
N869        O873   1.262       .  A
N869        O874   1.262       .  A
N872        O876   1.262       .  A
N872        O875   1.262       .  A
C877        C878   1.410       .  A
C877        C882   1.396       .  A
C877        H884   1.083       .  S
C878        C879   1.412       .  A
C879        C880   1.401       .  A
C879        N886   1.429       .  S
C880        C881   1.405       .  A
C880        H885   1.084       .  S
C881        C882   1.410       .  A
C882        N883   1.429       .  S
N883        O887   1.262       .  A
N883        O888   1.262       .  A
N886        O890   1.262   1_545  A
N886        O889   1.262       .  A
C891        C892   1.400       .  A
C891        C896   1.395       .  A
C891        H898   1.084       .  S
C892        C893   1.414       .  A
C893        C894   1.403       .  A
C893        N900   1.429       .  S
C894        C895   1.407       .  A
C894        H899   1.084       .  S
C895        C896   1.418       .  A
C896        N897   1.428       .  S
N897        O901   1.261       .  A
N897        O902   1.262       .  A
N900        O904   1.262       .  A
N900        O903   1.262   1_545  A
C905        C906   1.411       .  A
C905        C910   1.398       .  A
C905        H912   1.083   1_565  S
C906        C907   1.413       .  A
C907        C908   1.396       .  A
C907        N914   1.429       .  S
C908        C909   1.405       .  A
C908        H913   1.082       .  S
C909        C910   1.410       .  A
C910        N911   1.430   1_565  S
N911        O915   1.262       .  A
N911        O916   1.262       .  A
N914        O918   1.262       .  A
N914        O917   1.262       .  A
C919        C920   1.407       .  A
C919        C924   1.404       .  A
C919        H926   1.083       .  S
C920        C921   1.420       .  A
C921        C922   1.398       .  A
C921        N928   1.429       .  S
C922        C923   1.402       .  A
C922        H927   1.084       .  S
C923        C924   1.416       .  A
C924        N925   1.429       .  S
N925        O929   1.262       .  A
N925        O930   1.262       .  A
N928        O932   1.261       .  A
N928        O931   1.262       .  A
C933        C934   1.403       .  A
C933        C938   1.396       .  A
C933        H940   1.084       .  S
C934        C935   1.415       .  A
C935        C936   1.399       .  A
C935        N942   1.429       .  S
C936        C937   1.401       .  A
C936        H941   1.084       .  S
C937        C938   1.411       .  A
C938        N939   1.428       .  S
N939        O943   1.262       .  A
N939        O944   1.261       .  A
N942        O946   1.262       .  A
N942        O945   1.262       .  A
C947        C948   1.401       .  A
C947        C952   1.394       .  A
C947        H954   1.084       .  S
C948        C949   1.414       .  A
C949        C950   1.394       .  A
C949        N956   1.429       .  S
C950        C951   1.399       .  A
C950        H955   1.084       .  S
C951        C952   1.413       .  A
C952        N953   1.429       .  S
N953        O957   1.262       .  A
N953        O958   1.262       .  A
N956        O960   1.262       .  A
N956        O959   1.262       .  A
C961        C962   1.401   1_545  A
C961        C966   1.398       .  A
C961        H968   1.084       .  S
C962        C963   1.420       .  A
C963        C964   1.397       .  A
C963        N970   1.431       .  S
C964        C965   1.400       .  A
C964        H969   1.084       .  S
C965        C966   1.413   1_565  A
C966        N967   1.428       .  S
N967        O971   1.261       .  A
N967        O972   1.262       .  A
N970        O974   1.262       .  A
N970        O973   1.262       .  A
C975        C976   1.404       .  A
C975        C980   1.396       .  A
C975        H982   1.084       .  S
C976        C977   1.415       .  A
C977        C978   1.405       .  A
C977        N984   1.429       .  S
C978        C979   1.407       .  A
C978        H983   1.084       .  S
C979        C980   1.416       .  A
C980        N981   1.430       .  S
N981        O985   1.262       .  A
N981        O986   1.262       .  A
N984        O988   1.262       .  A
N984        O987   1.262       .  A
C989        C990   1.404       .  A
C989        C994   1.399       .  A
C989        H996   1.083       .  S
C990        C991   1.413       .  A
C991        C992   1.399       .  A
C991        N998   1.429       .  S
C992        C993   1.408       .  A
C992        H997   1.084       .  S
C993        C994   1.415       .  A
C994        N995   1.428       .  S
N995        O999   1.261       .  A
N995       O1000   1.262       .  A
N998       O1002   1.262       .  A
N998       O1001   1.262       .  A
C1003      C1004   1.399       .  A
C1003      C1008   1.392   1_655  A
C1003      H1010   1.082       .  S
C1004      C1005   1.416   1_655  A
C1005      C1006   1.404       .  A
C1005      N1012   1.429       .  S
C1006      C1007   1.410       .  A
C1006      H1011   1.084       .  S
C1007      C1008   1.413       .  A
C1008      N1009   1.424       .  S
N1009      O1013   1.263       .  A
N1009      O1014   1.262       .  A
N1012      O1016   1.262       .  A
N1012      O1015   1.262   1_455  A
C1017      C1018   1.401       .  A
C1017      C1022   1.394       .  A
C1017      H1024   1.083       .  S
C1018      C1019   1.414       .  A
C1019      C1020   1.398       .  A
C1019      N1026   1.429       .  S
C1020      C1021   1.404       .  A
C1020      H1025   1.084       .  S
C1021      C1022   1.413       .  A
C1022      N1023   1.430       .  S
N1023      O1027   1.262       .  A
N1023      O1028   1.262       .  A
N1026      O1030   1.262       .  A
N1026      O1029   1.262       .  A
C1031      C1032   1.401       .  A
C1031      C1036   1.393       .  A
C1031      H1038   1.084       .  S
C1032      C1033   1.414       .  A
C1033      C1034   1.400       .  A
C1033      N1040   1.428       .  S
C1034      C1035   1.408   1_655  A
C1034      H1039   1.081       .  S
C1035      C1036   1.415   1_455  A
C1036      N1037   1.423   1_655  S
N1037      O1041   1.262   1_455  A
N1037      O1042   1.262       .  A
N1040      O1044   1.262       .  A
N1040      O1043   1.262       .  A
C1045      C1046   1.395       .  A
C1045      C1050   1.392       .  A
C1045      H1052   1.084       .  S
C1046      C1047   1.408       .  A
C1047      C1048   1.403       .  A
C1047      N1054   1.430       .  S
C1048      C1049   1.413       .  A
C1048      H1053   1.083       .  S
C1049      C1050   1.415       .  A
C1050      N1051   1.424       .  S
N1051      O1055   1.263       .  A
N1051      O1056   1.262       .  A
N1054      O1058   1.262       .  A
N1054      O1057   1.262       .  A
C1059      C1060   1.403       .  A
C1059      C1064   1.399       .  A
C1059      H1066   1.084       .  S
C1060      C1061   1.414       .  A
C1061      C1062   1.400       .  A
C1061      N1068   1.429       .  S
C1062      C1063   1.403       .  A
C1062      H1067   1.084       .  S
C1063      C1064   1.412       .  A
C1064      N1065   1.429       .  S
N1065      O1069   1.262       .  A
N1065      O1070   1.262       .  A
N1068      O1072   1.261       .  A
N1068      O1071   1.262   1_545  A
C1073      C1074   1.403       .  A
C1073      C1078   1.402       .  A
C1073      H1080   1.084       .  S
C1074      C1075   1.411       .  A
C1075      C1076   1.394       .  A
C1075      N1082   1.428       .  S
C1076      C1077   1.402       .  A
C1076      H1081   1.083       .  S
C1077      C1078   1.414       .  A
C1078      N1079   1.428       .  S
N1079      O1083   1.262       .  A
N1079      O1084   1.262       .  A
N1082      O1086   1.262       .  A
N1082      O1085   1.261       .  A
C1087      C1088   1.406       .  A
C1087      C1092   1.402       .  A
C1087      H1094   1.082       .  S
C1088      C1089   1.417       .  A
C1089      C1090   1.397       .  A
C1089      N1096   1.429       .  S
C1090      C1091   1.406       .  A
C1090      H1095   1.083       .  S
C1091      C1092   1.416       .  A
C1092      N1093   1.428       .  S
N1093      O1097   1.262       .  A
N1093      O1098   1.262       .  A
N1096      O1100   1.262       .  A
N1096      O1099   1.262       .  A
C1101      C1102   1.406       .  A
C1101      C1106   1.397       .  A
C1101      H1108   1.084       .  S
C1102      C1103   1.413       .  A
C1103      C1104   1.400       .  A
C1103      N1110   1.428       .  S
C1104      C1105   1.406       .  A
C1104      H1109   1.084       .  S
C1105      C1106   1.415       .  A
C1106      N1107   1.429       .  S
N1107      O1111   1.262       .  A
N1107      O1112   1.261       .  A
N1110      O1114   1.262   1_554  A
N1110      O1113   1.262   1_554  A
C1115      C1116   1.401       .  A
C1115      C1120   1.398       .  A
C1115      H1122   1.084       .  S
C1116      C1117   1.412       .  A
C1117      C1118   1.396       .  A
C1117      N1124   1.429       .  S
C1118      C1119   1.401       .  A
C1118      H1123   1.084       .  S
C1119      C1120   1.414       .  A
C1120      N1121   1.430       .  S
N1121      O1125   1.262       .  A
N1121      O1126   1.262       .  A
N1124      O1128   1.262       .  A
N1124      O1127   1.262       .  A
C1129      C1130   1.407       .  A
C1129      C1134   1.401       .  A
C1129      H1136   1.084       .  S
C1130      C1131   1.413       .  A
C1131      C1132   1.398       .  A
C1131      N1138   1.429       .  S
C1132      C1133   1.405       .  A
C1132      H1137   1.083       .  S
C1133      C1134   1.411       .  A
C1134      N1135   1.429       .  S
N1135      O1139   1.262       .  A
N1135      O1140   1.262       .  A
N1138      O1142   1.262       .  A
N1138      O1141   1.262       .  A
C1143      C1144   1.398   1_556  A
C1143      C1148   1.390       .  A
C1143      H1150   1.083       .  S
C1144      C1145   1.413       .  A
C1145      C1146   1.402       .  A
C1145      N1152   1.428       .  S
C1146      C1147   1.405       .  A
C1146      H1151   1.084       .  S
C1147      C1148   1.413   1_554  A
C1148      N1149   1.426       .  S
N1149      O1153   1.262       .  A
N1149      O1154   1.261   1_545  A
N1152      O1156   1.261   1_545  A
N1152      O1155   1.262       .  A
C1157      C1158   1.406       .  A
C1157      C1162   1.395       .  A
C1157      H1164   1.084       .  S
C1158      C1159   1.409       .  A
C1159      C1160   1.398   1_565  A
C1159      N1166   1.428       .  S
C1160      C1161   1.405   1_545  A
C1160      H1165   1.084       .  S
C1161      C1162   1.410       .  A
C1162      N1163   1.429       .  S
N1163      O1167   1.262       .  A
N1163      O1168   1.261       .  A
N1166      O1170   1.262   1_565  A
N1166      O1169   1.261   1_565  A
C1171      C1172   1.400       .  A
C1171      C1176   1.393       .  A
C1171      H1178   1.085       .  S
C1172      C1173   1.407       .  A
C1173      C1174   1.401       .  A
C1173      N1180   1.429       .  S
C1174      C1175   1.411       .  A
C1174      H1179   1.083       .  S
C1175      C1176   1.410       .  A
C1176      N1177   1.421       .  S
N1177      O1181   1.261       .  A
N1177      O1182   1.259       .  A
N1180      O1184   1.262       .  A
N1180      O1183   1.262       .  A
C1185      C1186   1.410       .  A
C1185      C1190   1.400       .  A
C1185      H1192   1.083       .  S
C1186      C1187   1.416       .  A
C1187      C1188   1.400       .  A
C1187      N1194   1.427       .  S
C1188      C1189   1.402       .  A
C1188      H1193   1.084       .  S
C1189      C1190   1.414       .  A
C1190      N1191   1.430       .  S
N1191      O1195   1.262       .  A
N1191      O1196   1.262       .  A
N1194      O1198   1.262       .  A
N1194      O1197   1.262       .  A
C1199      C1200   1.406       .  A
C1199      C1204   1.403       .  A
C1199      H1206   1.084       .  S
C1200      C1201   1.419       .  A
C1201      C1202   1.398       .  A
C1201      N1208   1.429       .  S
C1202      C1203   1.404       .  A
C1202      H1207   1.082       .  S
C1203      C1204   1.418       .  A
C1204      N1205   1.429       .  S
N1205      O1209   1.262       .  A
N1205      O1210   1.262       .  A
N1208      O1212   1.262       .  A
N1208      O1211   1.262       .  A
C1213      C1214   1.404       .  A
C1213      C1218   1.397       .  A
C1213      H1220   1.085       .  S
C1214      C1215   1.409       .  A
C1215      C1216   1.402       .  A
C1215      N1222   1.429       .  S
C1216      C1217   1.408       .  A
C1216      H1221   1.084       .  S
C1217      C1218   1.411       .  A
C1218      N1219   1.429       .  S
N1219      O1223   1.262       .  A
N1219      O1224   1.262       .  A
N1222      O1226   1.262       .  A
N1222      O1225   1.262       .  A
C1227      C1228   1.404       .  A
C1227      C1232   1.400       .  A
C1227      H1234   1.084       .  S
C1228      C1229   1.416       .  A
C1229      C1230   1.397       .  A
C1229      N1236   1.429       .  S
C1230      C1231   1.402       .  A
C1230      H1235   1.083       .  S
C1231      C1232   1.416       .  A
C1232      N1233   1.430       .  S
N1233      O1237   1.262       .  A
N1233      O1238   1.262       .  A
N1236      O1240   1.262       .  A
N1236      O1239   1.262       .  A
C1241      C1242   1.399       .  A
C1241      C1246   1.396       .  A
C1241      H1248   1.084       .  S
C1242      C1243   1.407       .  A
C1243      C1244   1.402       .  A
C1243      N1250   1.430       .  S
C1244      C1245   1.407       .  A
C1244      H1249   1.079       .  S
C1245      C1246   1.409       .  A
C1246      N1247   1.423       .  S
N1247      O1251   1.262       .  A
N1247      O1252   1.261       .  A
N1250      O1254   1.262       .  A
N1250      O1253   1.262       .  A
C1255      C1256   1.403       .  A
C1255      C1260   1.399   1_655  A
C1255      H1262   1.084       .  S
C1256      C1257   1.410   1_655  A
C1257      C1258   1.394       .  A
C1257      N1264   1.427       .  S
C1258      C1259   1.401       .  A
C1258      H1263   1.084       .  S
C1259      C1260   1.408       .  A
C1260      N1261   1.424       .  S
N1261      O1265   1.261       .  A
N1261      O1266   1.262       .  A
N1264      O1268   1.261       .  A
N1264      O1267   1.262       .  A
C1269      C1270   1.404       .  A
C1269      C1274   1.402       .  A
C1269      H1276   1.084       .  S
C1270      C1271   1.411       .  A
C1271      C1272   1.391       .  A
C1271      N1278   1.428       .  S
C1272      C1273   1.402       .  A
C1272      H1277   1.084       .  S
C1273      C1274   1.411       .  A
C1274      N1275   1.428       .  S
N1275      O1279   1.261       .  A
N1275      O1280   1.262       .  A
N1278      O1282   1.262       .  A
N1278      O1281   1.262       .  A
C1283      C1284   1.409       .  A
C1283      C1288   1.401       .  A
C1283      H1290   1.084       .  S
C1284      C1285   1.409       .  A
C1285      C1286   1.396       .  A
C1285      N1292   1.423       .  S
C1286      C1287   1.402       .  A
C1286      H1291   1.085       .  S
C1287      C1288   1.410       .  A
C1288      N1289   1.429       .  S
N1289      O1293   1.262       .  A
N1289      O1294   1.262       .  A
N1292      O1296   1.261       .  A
N1292      O1295   1.261       .  A
C1297      C1298   1.401       .  A
C1297      C1302   1.393       .  A
C1297      H1304   1.084       .  S
C1298      C1299   1.414       .  A
C1299      C1300   1.398       .  A
C1299      N1306   1.430       .  S
C1300      C1301   1.408       .  A
C1300      H1305   1.083       .  S
C1301      C1302   1.411       .  A
C1302      N1303   1.424       .  S
N1303      O1307   1.262       .  A
N1303      O1308   1.262       .  A
N1306      O1310   1.262       .  A
N1306      O1309   1.262       .  A
C1311      C1312   1.407       .  A
C1311      C1316   1.400       .  A
C1311      H1318   1.082       .  S
C1312      C1313   1.416       .  A
C1313      C1314   1.393       .  A
C1313      N1320   1.426   1_545  S
C1314      C1315   1.401       .  A
C1314      H1319   1.083       .  S
C1315      C1316   1.414       .  A
C1316      N1317   1.429       .  S
N1317      O1321   1.262       .  A
N1317      O1322   1.262       .  A
N1320      O1324   1.262       .  A
N1320      O1323   1.262       .  A
C1325      C1326   1.407       .  A
C1325      C1330   1.395       .  A
C1325      H1332   1.084       .  S
C1326      C1327   1.407       .  A
C1327      C1328   1.396       .  A
C1327      N1334   1.428   1_565  S
C1328      C1329   1.409       .  A
C1328      H1333   1.081   1_565  S
C1329      C1330   1.411       .  A
C1330      N1331   1.428       .  S
N1331      O1335   1.262       .  A
N1331      O1336   1.262       .  A
N1334      O1338   1.262       .  A
N1334      O1337   1.262       .  A
C1339      C1340   1.402   1_655  A
C1339      C1344   1.391       .  A
C1339      H1346   1.084       .  S
C1340      C1341   1.413   1_455  A
C1341      C1342   1.397       .  A
C1341      N1348   1.428   1_655  S
C1342      C1343   1.402       .  A
C1342      H1347   1.084       .  S
C1343      C1344   1.416       .  A
C1344      N1345   1.429       .  S
N1345      O1349   1.261       .  A
N1345      O1350   1.262       .  A
N1348      O1352   1.262       .  A
N1348      O1351   1.262   1_455  A
C1353      C1354   1.402       .  A
C1353      C1358   1.394       .  A
C1353      H1360   1.084       .  S
C1354      C1355   1.415       .  A
C1355      C1356   1.399       .  A
C1355      N1362   1.429       .  S
C1356      C1357   1.402       .  A
C1356      H1361   1.084       .  S
C1357      C1358   1.411       .  A
C1358      N1359   1.428       .  S
N1359      O1363   1.262       .  A
N1359      O1364   1.261       .  A
N1362      O1366   1.262       .  A
N1362      O1365   1.262       .  A
C1367      C1368   1.405       .  A
C1367      C1372   1.394       .  A
C1367      H1374   1.084       .  S
C1368      C1369   1.407       .  A
C1369      C1370   1.391       .  A
C1369      N1376   1.428       .  S
C1370      C1371   1.399       .  A
C1370      H1375   1.084       .  S
C1371      C1372   1.408       .  A
C1372      N1373   1.429       .  S
N1373      O1377   1.261       .  A
N1373      O1378   1.262       .  A
N1376      O1380   1.262       .  A
N1376      O1379   1.262       .  A
C1381      C1382   1.401       .  A
C1381      C1386   1.398       .  A
C1381      H1388   1.084       .  S
C1382      C1383   1.411       .  A
C1383      C1384   1.401       .  A
C1383      N1390   1.429       .  S
C1384      C1385   1.405       .  A
C1384      H1389   1.084       .  S
C1385      C1386   1.415       .  A
C1386      N1387   1.428       .  S
N1387      O1391   1.261       .  A
N1387      O1392   1.262       .  A
N1390      O1394   1.261       .  A
N1390      O1393   1.262       .  A
C1395      C1396   1.407       .  A
C1395      C1400   1.405       .  A
C1395      H1402   1.083       .  S
C1396      C1397   1.418       .  A
C1397      C1398   1.402       .  A
C1397      N1404   1.429       .  S
C1398      C1399   1.407       .  A
C1398      H1403   1.083       .  S
C1399      C1400   1.418       .  A
C1400      N1401   1.428       .  S
N1401      O1405   1.261       .  A
N1401      O1406   1.262       .  A
N1404      O1408   1.262       .  A
N1404      O1407   1.262       .  A
C1409      C1410   1.407       .  A
C1409      C1414   1.404       .  A
C1409      H1416   1.084       .  S
C1410      C1411   1.410       .  A
C1411      C1412   1.399       .  A
C1411      N1418   1.429       .  S
C1412      C1413   1.411       .  A
C1412      H1417   1.083       .  S
C1413      C1414   1.414       .  A
C1414      N1415   1.429       .  S
N1415      O1419   1.262       .  A
N1415      O1420   1.261       .  A
N1418      O1422   1.262       .  A
N1418      O1421   1.262       .  A
C1423      C1424   1.411       .  A
C1423      C1428   1.408       .  A
C1423      H1430   1.084       .  S
C1424      C1425   1.411       .  A
C1425      C1426   1.396       .  A
C1425      N1432   1.430       .  S
C1426      C1427   1.404       .  A
C1426      H1431   1.084       .  S
C1427      C1428   1.410       .  A
C1428      N1429   1.430       .  S
N1429      O1433   1.262       .  A
N1429      O1434   1.262       .  A
N1432      O1436   1.262       .  A
N1432      O1435   1.262       .  A
C1437      C1438   1.405       .  A
C1437      C1442   1.401       .  A
C1437      H1444   1.084       .  S
C1438      C1439   1.416       .  A
C1439      C1440   1.402       .  A
C1439      N1446   1.429       .  S
C1440      C1441   1.404       .  A
C1440      H1445   1.084       .  S
C1441      C1442   1.415       .  A
C1442      N1443   1.429       .  S
N1443      O1447   1.262       .  A
N1443      O1448   1.262       .  A
N1446      O1450   1.262       .  A
N1446      O1449   1.262       .  A
C1451      C1452   1.404       .  A
C1451      C1456   1.398   1_565  A
C1451      H1458   1.083       .  S
C1452      C1453   1.418       .  A
C1453      C1454   1.395   1_565  A
C1453      N1460   1.429       .  S
C1454      C1455   1.402       .  A
C1454      H1459   1.084       .  S
C1455      C1456   1.415       .  A
C1456      N1457   1.429       .  S
N1457      O1461   1.262       .  A
N1457      O1462   1.262       .  A
N1460      O1464   1.262   1_565  A
N1460      O1463   1.262       .  A
C1465      C1466   1.403       .  A
C1465      C1470   1.395       .  A
C1465      H1472   1.082       .  S
C1466      C1467   1.413       .  A
C1467      C1468   1.404       .  A
C1467      N1474   1.428       .  S
C1468      C1469   1.411       .  A
C1468      H1473   1.083       .  S
C1469      C1470   1.413       .  A
C1470      N1471   1.426       .  S
N1471      O1475   1.262       .  A
N1471      O1476   1.260       .  A
N1474      O1478   1.262       .  A
N1474      O1477   1.262       .  A
C1479      C1480   1.410   1_655  A
C1479      C1484   1.398       .  A
C1479      H1486   1.083       .  S
C1480      C1481   1.412       .  A
C1481      C1482   1.397       .  A
C1481      N1488   1.429       .  S
C1482      C1483   1.404       .  A
C1482      H1487   1.083       .  S
C1483      C1484   1.408   1_455  A
C1484      N1485   1.430       .  S
N1485      O1489   1.262       .  A
N1485      O1490   1.262       .  A
N1488      O1492   1.261       .  A
N1488      O1491   1.262       .  A
C1493      C1494   1.405       .  A
C1493      C1498   1.403       .  A
C1493      H1500   1.084       .  S
C1494      C1495   1.412       .  A
C1495      C1496   1.395       .  A
C1495      N1502   1.429       .  S
C1496      C1497   1.403       .  A
C1496      H1501   1.084       .  S
C1497      C1498   1.413       .  A
C1498      N1499   1.430       .  S
N1499      O1503   1.262       .  A
N1499      O1504   1.262       .  A
N1502      O1506   1.262       .  A
N1502      O1505   1.262       .  A
C1507      C1508   1.403       .  A
C1507      C1512   1.395       .  A
C1507      H1514   1.081       .  S
C1508      C1509   1.415       .  A
C1509      C1510   1.397       .  A
C1509      N1516   1.430       .  S
C1510      C1511   1.405       .  A
C1510      H1515   1.081       .  S
C1511      C1512   1.415       .  A
C1512      N1513   1.428       .  S
N1513      O1517   1.262       .  A
N1513      O1518   1.262       .  A
N1516      O1520   1.262       .  A
N1516      O1519   1.262       .  A
C1521      C1522   1.408       .  A
C1521      C1526   1.403       .  A
C1521      H1528   1.083       .  S
C1522      C1523   1.414       .  A
C1523      C1524   1.396       .  A
C1523      N1530   1.429       .  S
C1524      C1525   1.408       .  A
C1524      H1529   1.083       .  S
C1525      C1526   1.414       .  A
C1526      N1527   1.429   1_554  S
N1527      O1531   1.262       .  A
N1527      O1532   1.262       .  A
N1530      O1534   1.262       .  A
N1530      O1533   1.261       .  A
C1535      C1536   1.405       .  A
C1535      C1540   1.399       .  A
C1535      H1542   1.084       .  S
C1536      C1537   1.412       .  A
C1537      C1538   1.402       .  A
C1537      N1544   1.429       .  S
C1538      C1539   1.406       .  A
C1538      H1543   1.084       .  S
C1539      C1540   1.410       .  A
C1540      N1541   1.428       .  S
N1541      O1545   1.261       .  A
N1541      O1546   1.262       .  A
N1544      O1548   1.262       .  A
N1544      O1547   1.262       .  A
C1549      C1550   1.405       .  A
C1549      C1554   1.399       .  A
C1549      H1556   1.084       .  S
C1550      C1551   1.409       .  A
C1551      C1552   1.396       .  A
C1551      N1558   1.429       .  S
C1552      C1553   1.403       .  A
C1552      H1557   1.084       .  S
C1553      C1554   1.410       .  A
C1554      N1555   1.429       .  S
N1555      O1559   1.262       .  A
N1555      O1560   1.262       .  A
N1558      O1562   1.261       .  A
N1558      O1561   1.262       .  A
C1563      C1564   1.402       .  A
C1563      C1568   1.397       .  A
C1563      H1570   1.081       .  S
C1564      C1565   1.412       .  A
C1565      C1566   1.396       .  A
C1565      N1572   1.428       .  S
C1566      C1567   1.406       .  A
C1566      H1571   1.081       .  S
C1567      C1568   1.414       .  A
C1568      N1569   1.426   1_554  S
N1569      O1573   1.262       .  A
N1569      O1574   1.262       .  A
N1572      O1576   1.261       .  A
N1572      O1575   1.262       .  A
C1577      C1578   1.406       .  A
C1577      C1582   1.398       .  A
C1577      H1584   1.083       .  S
C1578      C1579   1.416       .  A
C1579      C1580   1.402       .  A
C1579      N1586   1.429       .  S
C1580      C1581   1.408       .  A
C1580      H1585   1.083   1_554  S
C1581      C1582   1.416       .  A
C1582      N1583   1.428       .  S
N1583      O1587   1.262       .  A
N1583      O1588   1.262       .  A
N1586      O1590   1.262       .  A
N1586      O1589   1.262   1_554  A
C1591      C1592   1.400       .  A
C1591      C1596   1.393       .  A
C1591      H1598   1.082       .  S
C1592      C1593   1.416       .  A
C1593      C1594   1.397       .  A
C1593      N1600   1.429       .  S
C1594      C1595   1.400       .  A
C1594      H1599   1.084       .  S
C1595      C1596   1.411       .  A
C1596      N1597   1.428       .  S
N1597      O1601   1.261       .  A
N1597      O1602   1.262       .  A
N1600      O1604   1.262       .  A
N1600      O1603   1.262       .  A
C1605      C1606   1.405       .  A
C1605      C1610   1.398       .  A
C1605      H1612   1.082       .  S
C1606      C1607   1.419       .  A
C1607      C1608   1.405       .  A
C1607      N1614   1.429       .  S
C1608      C1609   1.407       .  A
C1608      H1613   1.084       .  S
C1609      C1610   1.417       .  A
C1610      N1611   1.429       .  S
N1611      O1615   1.262   1_455  A
N1611      O1616   1.262       .  A
N1614      O1618   1.262       .  A
N1614      O1617   1.262       .  A
C1619      C1620   1.402       .  A
C1619      C1624   1.393       .  A
C1619      H1626   1.085       .  S
C1620      C1621   1.410       .  A
C1621      C1622   1.407       .  A
C1621      N1628   1.430       .  S
C1622      C1623   1.408       .  A
C1622      H1627   1.084       .  S
C1623      C1624   1.413       .  A
C1624      N1625   1.430       .  S
N1625      O1629   1.262       .  A
N1625      O1630   1.262       .  A
N1628      O1632   1.262       .  A
N1628      O1631   1.262       .  A
C1633      C1634   1.404       .  A
C1633      C1638   1.397       .  A
C1633      H1640   1.081       .  S
C1634      C1635   1.415       .  A
C1635      C1636   1.397       .  A
C1635      N1642   1.429       .  S
C1636      C1637   1.401       .  A
C1636      H1641   1.084       .  S
C1637      C1638   1.409       .  A
C1638      N1639   1.429       .  S
N1639      O1643   1.261       .  A
N1639      O1644   1.262       .  A
N1642      O1646   1.262       .  A
N1642      O1645   1.262       .  A
C1647      C1648   1.406       .  A
C1647      C1652   1.397       .  A
C1647      H1654   1.084       .  S
C1648      C1649   1.408       .  A
C1649      C1650   1.398       .  A
C1649      N1656   1.429       .  S
C1650      C1651   1.408   1_655  A
C1650      H1655   1.084   1_655  S
C1651      C1652   1.410   1_455  A
C1652      N1653   1.429   1_655  S
N1653      O1657   1.262   1_455  A
N1653      O1658   1.262       .  A
N1656      O1660   1.262       .  A
N1656      O1659   1.262       .  A
C1661      C1662   1.402       .  A
C1661      C1666   1.401       .  A
C1661      H1668   1.084       .  S
C1662      C1663   1.412       .  A
C1663      C1664   1.391       .  A
C1663      N1670   1.429       .  S
C1664      C1665   1.405       .  A
C1664      H1669   1.084       .  S
C1665      C1666   1.416       .  A
C1666      N1667   1.427       .  S
N1667      O1671   1.262       .  A
N1667      O1672   1.262       .  A
N1670      O1674   1.261       .  A
N1670      O1673   1.262       .  A
C1675      C1676   1.404       .  A
C1675      C1680   1.399       .  A
C1675      H1682   1.084       .  S
C1676      C1677   1.409       .  A
C1677      C1678   1.395       .  A
C1677      N1684   1.429       .  S
C1678      C1679   1.405       .  A
C1678      H1683   1.084       .  S
C1679      C1680   1.413       .  A
C1680      N1681   1.429       .  S
N1681      O1685   1.262       .  A
N1681      O1686   1.262       .  A
N1684      O1688   1.261       .  A
N1684      O1687   1.262       .  A
C1689      C1690   1.409       .  A
C1689      C1694   1.401       .  A
C1689      H1696   1.083       .  S
C1690      C1691   1.416       .  A
C1691      C1692   1.400       .  A
C1691      N1698   1.429       .  S
C1692      C1693   1.407       .  A
C1692      H1697   1.081       .  S
C1693      C1694   1.414       .  A
C1694      N1695   1.429       .  S
N1695      O1699   1.262       .  A
N1695      O1700   1.262       .  A
N1698      O1702   1.262       .  A
N1698      O1701   1.262       .  A
C1703      C1704   1.405       .  A
C1703      C1708   1.396   1_565  A
C1703      H1710   1.082       .  S
C1704      C1705   1.416       .  A
C1705      C1706   1.398   1_565  A
C1705      N1712   1.424       .  S
C1706      C1707   1.402       .  A
C1706      H1711   1.084       .  S
C1707      C1708   1.417       .  A
C1708      N1709   1.429       .  S
N1709      O1713   1.261       .  A
N1709      O1714   1.262       .  A
N1712      O1716   1.262       .  A
N1712      O1715   1.262       .  A
C1717      C1718   1.402       .  A
C1717      C1722   1.398       .  A
C1717      H1724   1.084       .  S
C1718      C1719   1.410       .  A
C1719      C1720   1.399       .  A
C1719      N1726   1.429       .  S
C1720      C1721   1.408       .  A
C1720      H1725   1.084       .  S
C1721      C1722   1.413       .  A
C1722      N1723   1.429       .  S
N1723      O1727   1.262       .  A
N1723      O1728   1.262       .  A
N1726      O1730   1.262       .  A
N1726      O1729   1.262       .  A
C1731      C1732   1.404       .  A
C1731      C1736   1.398       .  A
C1731      H1738   1.082       .  S
C1732      C1733   1.414       .  A
C1733      C1734   1.396       .  A
C1733      N1740   1.429       .  S
C1734      C1735   1.405       .  A
C1734      H1739   1.082       .  S
C1735      C1736   1.412       .  A
C1736      N1737   1.426       .  S
N1737      O1741   1.258       .  A
N1737      O1742   1.262       .  A
N1740      O1744   1.262       .  A
N1740      O1743   1.262       .  A
C1745      C1746   1.403   1_455  A
C1745      C1750   1.398       .  A
C1745      H1752   1.083       .  S
C1746      C1747   1.414       .  A
C1747      C1748   1.399       .  A
C1747      N1754   1.429       .  S
C1748      C1749   1.402       .  A
C1748      H1753   1.084       .  S
C1749      C1750   1.412   1_655  A
C1750      N1751   1.427       .  S
N1751      O1755   1.261       .  A
N1751      O1756   1.262       .  A
N1754      O1758   1.262       .  A
N1754      O1757   1.262       .  A
C1759      C1760   1.408       .  A
C1759      C1764   1.399       .  A
C1759      H1766   1.081       .  S
C1760      C1761   1.413       .  A
C1761      C1762   1.396       .  A
C1761      N1768   1.423       .  S
C1762      C1763   1.403       .  A
C1762      H1767   1.084       .  S
C1763      C1764   1.415       .  A
C1764      N1765   1.429       .  S
N1765      O1769   1.261       .  A
N1765      O1770   1.262       .  A
N1768      O1772   1.262       .  A
N1768      O1771   1.262       .  A
C1773      C1774   1.405       .  A
C1773      C1778   1.399       .  A
C1773      H1780   1.083       .  S
C1774      C1775   1.416       .  A
C1775      C1776   1.399       .  A
C1775      N1782   1.428       .  S
C1776      C1777   1.405       .  A
C1776      H1781   1.082       .  S
C1777      C1778   1.418       .  A
C1778      N1779   1.429       .  S
N1779      O1783   1.262       .  A
N1779      O1784   1.261       .  A
N1782      O1786   1.262       .  A
N1782      O1785   1.262       .  A
C1787      C1788   1.402       .  A
C1787      C1792   1.395       .  A
C1787      H1794   1.083       .  S
C1788      C1789   1.413       .  A
C1789      C1790   1.403       .  A
C1789      N1796   1.429       .  S
C1790      C1791   1.411       .  A
C1790      H1795   1.083       .  S
C1791      C1792   1.413       .  A
C1792      N1793   1.426       .  S
N1793      O1797   1.262       .  A
N1793      O1798   1.262       .  A
N1796      O1800   1.262       .  A
N1796      O1799   1.262       .  A
