geometry optimzed in LAMMPS
_audit_creation_date              2020-11-30 
_audit_creation_method            'lammps2cif' 
_symmetry_space_group_name_H-M    'P1' 
_symmetry_Int_Tables_number       1 
_symmetry_cell_setting            triclinic 
loop_ 
_symmetry_equiv_pos_as_xyz 
  x,y,z 
_cell_length_a                    35.25089421 
_cell_length_b                    35.199392944810654 
_cell_length_c                    86.6296911727093 
_cell_angle_alpha                 89.91463011591176 
_cell_angle_beta                  90.12792515281937 
_cell_angle_gamma                 120.22186546992833 
loop_ 
_atom_site_label 
_atom_site_type_symbol 
_atom_site_fract_x 
_atom_site_fract_y 
_atom_site_fract_z 
_atom_site_charge 
C1          C  0.66347825  0.08944116  0.71618982     0.80800
N2          N  0.63052352  0.04758979  0.71394640    -0.77500
C3          C  0.62905305  0.02538285  0.70099772     0.83200
N4          N  0.66151918  0.04479040  0.69034364    -0.77500
C5          C  0.69537442  0.08640800  0.69262930     0.83300
N6          N  0.69606943  0.10892561  0.70553683    -0.79200
C7          C  0.76602236  0.10149540  0.65871427     0.80800
N8          N  0.79978923  0.14263988  0.66139879    -0.77500
C9          C  0.80029740  0.16588569  0.67389240     0.83200
N10         N  0.76627240  0.14741621  0.68400080    -0.77500
C11         C  0.73178336  0.10627765  0.68145444     0.83300
N12         N  0.73187599  0.08316665  0.66882605    -0.79200
C13         C  0.51799429  0.76720148  0.82912219     0.80800
N14         N  0.53084836  0.74593317  0.83913099    -0.77500
C15         C  0.55319652  0.76653997  0.85228848     0.83200
N16         N  0.56229042  0.80824669  0.85535668    -0.77500
C17         C  0.54986669  0.82966208  0.84530248     0.83300
N18         N  0.52748440  0.80861466  0.83242228    -0.79200
C19         C  0.59749676  0.74170058  0.88751978     0.80800
N20         N  0.58706795  0.76352413  0.87685894    -0.77500
C21         C  0.56535671  0.74311927  0.86362219     0.83200
N22         N  0.55468751  0.70085000  0.86094026    -0.77500
C23         C  0.56450883  0.67864046  0.87153958     0.83300
N24         N  0.58594618  0.69924404  0.88469595    -0.79200
C25         C  0.82256058  0.42186651  0.50417482     0.80800
N26         N  0.84590505  0.40544115  0.51119296    -0.77500
C27         C  0.87256446  0.42710943  0.52343781     0.83200
N28         N  0.87607369  0.46542907  0.52847115    -0.77500
C29         C  0.85237547  0.48155214  0.52162919     0.83300
N30         N  0.82620389  0.45970822  0.50951500    -0.79200
C31         C  0.95020312  0.41784924  0.55002381     0.80800
N32         N  0.92545102  0.43258034  0.54304983    -0.77500
C33         C  0.89904338  0.41048016  0.53089766     0.83200
N34         N  0.89661785  0.37267616  0.52595887    -0.77500
C35         C  0.92117101  0.35747317  0.53283916     0.83300
N36         N  0.94782872  0.38021854  0.54488417    -0.79200
C37         C  0.44989138  0.42532937  0.00026859     0.80800
N38         N  0.41107963  0.41244032  0.00751130    -0.77500
C39         C  0.40852429  0.43748883  0.01898608     0.83200
N40         N  0.44475332  0.47613255  0.02287159    -0.77500
C41         C  0.48365130  0.48963088  0.01559801     0.83300
N42         N  0.48585549  0.46396929  0.00432878    -0.79200
C43         C  0.32444377  0.43366690  0.04588249     0.80800
N44         N  0.36354515  0.44749599  0.03863199    -0.77500
C45         C  0.36646968  0.42320166  0.02690214     0.83200
N46         N  0.33039461  0.38475787  0.02268903    -0.77500
C47         C  0.29131471  0.37103021  0.02977944     0.83300
N48         N  0.28881715  0.39553801  0.04130832    -0.79200
C49         C  0.00220988  0.74573229  0.38781819     0.80800
N50         N  0.03394811  0.76590622  0.37693700    -0.77500
C51         C  0.03290455  0.74419664  0.36377320     0.83200
N52         N  0.99946989  0.70231903  0.36142064    -0.77500
C53         C  0.96742742  0.68226215  0.37221450     0.83300
N54         N  0.96922288  0.70419345  0.38526529    -0.79200
C55         C  0.10463524  0.76356700  0.32976917     0.80800
N56         N  0.07033729  0.74357401  0.33978995    -0.77500
C57         C  0.06866019  0.76575126  0.35244433     0.83200
N58         N  0.10155102  0.80765411  0.35507758    -0.77500
C59         C  0.13583976  0.82748829  0.34517364     0.83300
N60         N  0.13715550  0.80527784  0.33262884    -0.79200
C61         C  0.15205600  0.08468542  0.17104830     0.80800
N62         N  0.15978489  0.12554217  0.17444082    -0.77500
C63         C  0.18884762  0.15018895  0.18560593     0.83200
N64         N  0.21035238  0.13354298  0.19360855    -0.77500
C65         C  0.20288269  0.09256204  0.19037257     0.83300
N66         N  0.17398125  0.06836187  0.17900919    -0.79200
C67         C  0.27095312  0.07821775  0.22000930     0.80800
N68         N  0.25260192  0.09683600  0.21118229    -0.77500
C69         C  0.22436247  0.07355990  0.19952411     0.83200
N70         N  0.21421427  0.03151187  0.19678271    -0.77500
C71         C  0.23193185  0.01250870  0.20557241     0.83300
N72         N  0.25991529  0.03598631  0.21715745    -0.79200
C73         C  0.04413323  0.68521749  0.83424627     0.80800
N74         N  0.06503019  0.72014563  0.84395837    -0.77500
C75         C  0.04322032  0.72492358  0.85609855     0.83200
N76         N  0.00034763  0.69465911  0.85850179    -0.77500
C77         C  0.97899136  0.66018308  0.84870494     0.83300
N78         N  0.00112088  0.65563363  0.83674231    -0.79200
C79         C  0.06715678  0.80120755  0.88910201     0.80800
N80         N  0.04556504  0.76613813  0.87943924    -0.77500
C81         C  0.06594410  0.76267661  0.86655971     0.83200
N82         N  0.10766887  0.79458565  0.86326645    -0.77500
C83         C  0.12921052  0.82950343  0.87281909     0.83300
N84         N  0.10892832  0.83235105  0.88562243    -0.79200
C85         C  0.71343062  0.63534905  0.66411175     0.80800
N86         N  0.73062139  0.61646556  0.67335897    -0.77500
C87         C  0.70607558  0.58871513  0.68494664     0.83200
N88         N  0.66422310  0.57980126  0.68723113    -0.77500
C89         C  0.64645226  0.59771812  0.67786860     0.83300
N90         N  0.67137120  0.62552034  0.66649628    -0.79200
C91         C  0.72007193  0.52861891  0.71760748     0.80800
N92         N  0.70301198  0.54723442  0.70819663    -0.77500
C93         C  0.72452770  0.56843354  0.69505405     0.83200
N94         N  0.76313732  0.57079446  0.69132036    -0.77500
C95         C  0.77987575  0.55142808  0.70049615     0.83300
N96         N  0.75835054  0.53094616  0.71359506    -0.79200
C97         C  0.37465865  0.36659281  0.49926296     0.80800
N98         N  0.39566541  0.40054517  0.50931573    -0.77500
C99         C  0.37405444  0.40399043  0.52175003     0.83200
N100        N  0.33131950  0.37297768  0.52418928    -0.77500
C101        C  0.31024279  0.33910868  0.51409320     0.83300
N102        N  0.33195066  0.33636305  0.50169592    -0.79200
C103        C  0.39587773  0.48245096  0.55371138     0.80800
N104        N  0.43825663  0.51290777  0.55070144    -0.77500
C105        C  0.46030439  0.50845261  0.53873947     0.83200
N106        N  0.43917808  0.47283243  0.52939978    -0.77500
C107        C  0.39672393  0.44170210  0.53223296     0.83300
N108        N  0.37508402  0.44664161  0.54437786    -0.79200
C109        C  0.37350013  0.95107514  0.99328886     0.80800
N110        N  0.33605720  0.95034849  0.99757097    -0.77500
C111        C  0.31586597  0.93152493  0.01111740     0.83200
N112        N  0.33331303  0.91292727  0.02035490    -0.77500
C113        C  0.37099262  0.91384904  0.01623270     0.83300
N114        N  0.39116353  0.93334987  0.00278538    -0.79200
C115        C  0.39224014  0.86454688  0.05057398     0.80800
N116        N  0.37200985  0.87798735  0.04039029    -0.77500
C117        C  0.39147440  0.89646581  0.02670412     0.83200
N118        N  0.43116783  0.90100514  0.02313099    -0.77500
C119        C  0.45137800  0.88740572  0.03325046     0.83300
N120        N  0.43183935  0.86952571  0.04689722    -0.79200
C121        C  0.04356120  0.18607272  0.38091130     0.80800
N122        N  0.08270950  0.18997940  0.37724506    -0.77500
C123        C  0.10830004  0.21787507  0.36597258     0.83200
N124        N  0.09380634  0.24159903  0.35803270    -0.77500
C125        C  0.05439439  0.23786962  0.36161671     0.83300
N126        N  0.02972274  0.21050248  0.37321361    -0.79200
C127        C  0.04204659  0.30578533  0.33138280     0.80800
N128        N  0.05908972  0.28550136  0.33996103    -0.77500
C129        C  0.03747356  0.26202378  0.35275075     0.83200
N130        N  0.99874442  0.25901717  0.35691005    -0.77500
C131        C  0.98174864  0.27950838  0.34844079     0.83300
N132        N  0.00363703  0.30249317  0.33573952    -0.79200
C133        C  0.72071341  0.14827675  0.21908890     0.80800
N134        N  0.76211465  0.18135096  0.21631926    -0.77500
C135        C  0.78691144  0.17839730  0.20498369     0.83200
N136        N  0.76982468  0.14184547  0.19600756    -0.77500
C137        C  0.72832060  0.10814566  0.19852183     0.83300
N138        N  0.70384283  0.11126520  0.21020101    -0.79200
C139        C  0.71263644  0.03340158  0.16544931     0.80800
N140        N  0.73169098  0.06827834  0.17538450    -0.77500
C141        C  0.70914846  0.06968626  0.18804895     0.83200
N142        N  0.66762020  0.03621997  0.19066510    -0.77500
C143        C  0.64830334  0.00167221  0.18080100     0.83300
N144        N  0.67109585  0.00056871  0.16840964    -0.79200
C145        C  0.51094869  0.70514035  0.32936666     0.80800
N146        N  0.52192187  0.67379410  0.33150079    -0.77500
C147        C  0.54847993  0.67668137  0.34330333     0.83200
N148        N  0.56339294  0.71096298  0.35331863    -0.77500
C149        C  0.55293133  0.74293800  0.35118315     0.83300
N150        N  0.52670177  0.73998359  0.33913417    -0.79200
C151        C  0.60537067  0.81374941  0.38536878     0.80800
N152        N  0.59155658  0.78049699  0.37495575    -0.77500
C153        C  0.56845158  0.77955808  0.36221161     0.83200
N154        N  0.55921533  0.81227387  0.35983720    -0.77500
C155        C  0.57239597  0.84543003  0.37024263     0.83300
N156        N  0.59545534  0.84590829  0.38287565    -0.79200
C157        C  0.29583755  0.15863237  0.71214283     0.80800
N158        N  0.29347517  0.19404309  0.70736560    -0.77500
C159        C  0.26951610  0.19180370  0.69477668     0.83200
N160        N  0.24758289  0.15331334  0.68682748    -0.77500
C161        C  0.25043296  0.11770611  0.69128937     0.83300
N162        N  0.27438809  0.12043592  0.70403882    -0.79200
C163        C  0.17930810  0.03348962  0.66237974     0.80800
N164        N  0.19971735  0.07151301  0.67069007    -0.77500
C165        C  0.22795651  0.07643951  0.68235423     0.83200
N166        N  0.23591150  0.04320445  0.68562644    -0.77500
C167        C  0.21614331  0.00543126  0.67726394     0.83300
N168        N  0.18831383  0.00126463  0.66573239    -0.79200
C169        C  0.44211551  0.97017381  0.49995398     0.80800
N170        N  0.41091164  0.95963269  0.51093903    -0.77500
C171        C  0.40953809  0.93626028  0.52366503     0.83200
N172        N  0.43992598  0.92353559  0.52545099    -0.77500
C173        C  0.47092359  0.93323468  0.51441335     0.83300
N174        N  0.47177646  0.95658973  0.50178116    -0.79200
C175        C  0.34259824  0.89327190  0.55933301     0.80800
N176        N  0.31087723  0.90342753  0.55643806    -0.77500
C177        C  0.31063927  0.92404025  0.54325954     0.83200
N178        N  0.34275129  0.93444292  0.53265824    -0.77500
C179        C  0.37510664  0.92487823  0.53535428     0.83300
N180        N  0.37475885  0.90399077  0.54866595    -0.79200
C181        C  0.66091830  0.53635198  0.21968903     0.80800
N182        N  0.69879757  0.55748246  0.21134811    -0.77500
C183        C  0.70134895  0.58236223  0.19882903     0.83200
N184        N  0.66587788  0.58587915  0.19476844    -0.77500
C185        C  0.62792124  0.56456438  0.20294803     0.83300
N186        N  0.62597828  0.54011421  0.21532633    -0.79200
C187        C  0.77784489  0.64472655  0.16681665     0.80800
N188        N  0.74227893  0.62694140  0.17630976    -0.77500
C189        C  0.74115413  0.60342412  0.18905621     0.83200
N190        N  0.77577121  0.59741131  0.19216352    -0.77500
C191        C  0.81148727  0.61507983  0.18272273     0.83300
N192        N  0.81180249  0.63847874  0.17025222    -0.79200
C193        C  0.84290243  0.37185735  0.99488994     0.80800
N194        N  0.86004088  0.40599358  0.00498488    -0.77500
C195        C  0.88170711  0.40470971  0.01780337     0.83200
N196        N  0.88534703  0.36870108  0.02065019    -0.77500
C197        C  0.86736592  0.33391691  0.01081788     0.83300
N198        N  0.84654737  0.33593274  0.99789224    -0.79200
C199        C  0.94194274  0.47603860  0.05102613     0.80800
N200        N  0.92405376  0.44140186  0.04112566    -0.77500
C201        C  0.90108915  0.44206441  0.02854276     0.83200
N202        N  0.89625598  0.47755075  0.02588656    -0.77500
C203        C  0.91419756  0.51227455  0.03573365     0.83300
N204        N  0.93678291  0.51101688  0.04818951    -0.79200
C205        C  0.10514338  0.29459992  0.82918757     0.80800
N206        N  0.06950655  0.27784384  0.83861396    -0.77500
C207        C  0.06799081  0.25514563  0.85156359     0.83200
N208        N  0.10241478  0.24941993  0.85513187    -0.77500
C209        C  0.13817153  0.26622041  0.84581774     0.83300
N210        N  0.13922040  0.28890197  0.83302720    -0.79200
C211        C  0.99639134  0.20415873  0.88550402     0.80800
N212        N  0.96114432  0.20766250  0.88147077    -0.77500
C213        C  0.95966678  0.22644826  0.86795901     0.83200
N214        N  0.99463393  0.24204852  0.85826055    -0.77500
C215        C  0.03014185  0.23827635  0.86201403     0.83300
N216        N  0.03079841  0.21918558  0.87560540    -0.79200
O217        O  0.55656465  0.17231197  0.81919407    -0.79600
O218        O  0.66134282  0.37853363  0.86960497    -0.81100
O219        O  0.62184661  0.32657292  0.81745148    -0.78100
O220        O  0.67986575  0.26700393  0.84634340    -0.76500
O221        O  0.65992260  0.22810155  0.86901152    -0.78300
O222        O  0.55823046  0.32900108  0.81788269    -0.79200
O223        O  0.68328528  0.35622422  0.84834576    -0.80600
O224        O  0.62124120  0.23767320  0.81861953    -0.80900
Eu225      Eu  0.62240856  0.28413413  0.84001641     2.39200
O226        O  0.62318723  0.28596088  0.86718626    -0.88400
O227        O  0.54951757  0.24793449  0.83124400    -0.92000
C228        C  0.59475419  0.19867129  0.81340837     1.02700
C229        C  0.68992114  0.38379798  0.85930757     1.02500
C230        C  0.59551675  0.33864776  0.81187187     1.02500
C231        C  0.68629796  0.24681041  0.85756093     1.00300
H232        H  0.60307469  0.35202886  0.84514794     0.30100
O233        O  0.58770707  0.32222701  0.84894332    -1.00800
H234        H  0.59981010  0.19621931  0.84613608     0.30100
O235        O  0.58549094  0.21183183  0.84965810    -1.03300
O236        O  0.54191436  0.32385924  0.89754529    -0.80500
O237        O  0.43881501  0.11753038  0.84842648    -0.80100
O238        O  0.52903020  0.35985188  0.84695642    -0.78500
O239        O  0.63133143  0.25982523  0.89875107    -0.81800
O240        O  0.57082270  0.13969549  0.87038720    -0.79700
O241        O  0.47417164  0.24272881  0.81771796    -0.78300
O242        O  0.41828367  0.22750629  0.86864409    -0.79900
O243        O  0.47885457  0.16973665  0.89888502    -0.81800
O244        O  0.44029507  0.26916615  0.84663982    -0.78500
O245        O  0.54361228  0.16952648  0.89863002    -0.81200
O246        O  0.57294113  0.38081568  0.86827647    -0.76900
O247        O  0.47170510  0.17670041  0.81760252    -0.77000
O248        O  0.52526503  0.11587283  0.84934545    -0.76600
O249        O  0.63055295  0.32431695  0.89837962    -0.80100
O250        O  0.47641904  0.25952458  0.89838944    -0.79500
O251        O  0.41892575  0.13981015  0.87015747    -0.77900
Eu252      Eu  0.58662062  0.32202239  0.87611692     2.39800
Eu253      Eu  0.51256313  0.17541247  0.84068848     2.39600
Eu254      Eu  0.51476162  0.28577773  0.84016327     2.38400
Eu255      Eu  0.58686109  0.21410086  0.87680877     2.39900
Eu256      Eu  0.47750206  0.21402863  0.87685539     2.39800
O257        O  0.51381079  0.17769338  0.86785563    -0.92300
O258        O  0.51393360  0.28642180  0.86729104    -0.91200
C259        C  0.50372447  0.29841131  0.90352377     1.02900
C260        C  0.41179148  0.11148042  0.85947693     1.01600
C261        C  0.55129160  0.38770890  0.85769323     1.01000
C262        C  0.64223533  0.29810974  0.90428590     1.03000
C263        C  0.54756138  0.11056359  0.86014553     1.01900
C264        C  0.46282558  0.20506769  0.81165297     1.00800
C265        C  0.41199307  0.24766957  0.85731477     1.00800
C266        C  0.50564132  0.15803407  0.90437950     1.03400
H267        H  0.44759348  0.19801992  0.84574080     0.30800
O268        O  0.47731399  0.21297152  0.84956448    -1.04400
H269        H  0.55056172  0.25078520  0.89701456     0.32900
O270        O  0.55035224  0.25017295  0.88588563    -1.07000
O271        O  0.81402241  0.84922229  0.98475040    -0.79600
O272        O  0.91087901  0.05665697  0.03463325    -0.81100
O273        O  0.77838506  0.94120964  0.01294887    -0.78100
O274        O  0.89642436  0.00004633  0.98390289    -0.76500
O275        O  0.96319453  0.00403109  0.98497146    -0.78300
O276        O  0.75844117  0.89973856  0.03491315    -0.79200
O277        O  0.87025807  0.03357097  0.01238870    -0.80600
O278        O  0.81047325  0.91233154  0.98466073    -0.80900
Eu279      Eu  0.85352159  0.95835839  0.00651450     2.39200
O280        O  0.92570195  0.99696375  0.01608389    -0.88400
O281        O  0.81925518  0.88623932  0.01613371    -0.92000
C282        C  0.80125143  0.87481165  0.97890881     1.02700
C283        C  0.89118622  0.06234198  0.02303580     1.02500
C284        C  0.75070862  0.91925959  0.02376130     1.02500
C285        C  0.93516990  0.01255426  0.97860286     1.00300
H286        H  0.83702826  0.97495046  0.03716119     0.30100
O287        O  0.85265131  0.96050878  0.03377093    -1.00800
H288        H  0.89209525  0.92236968  0.98698064     0.30100
O289        O  0.89155983  0.92304103  0.99810466    -1.03300
O290        O  0.97088927  0.00190135  0.06551870    -0.80500
O291        O  0.87182045  0.79275869  0.01690058    -0.80100
O292        O  0.81722873  0.93132994  0.06542198    -0.78500
O293        O  0.02134245  0.03753021  0.01422769    -0.81800
O294        O  0.96658931  0.91725767  0.98632635    -0.79700
O295        O  0.75909301  0.81508690  0.03552803    -0.78300
O296        O  0.88250878  0.84776114  0.06658866    -0.79900
O297        O  0.00164659  0.90460491  0.03659472    -0.81800
O298        O  0.81545272  0.84313977  0.06535989    -0.78500
O299        O  0.02224246  0.94753797  0.01496934    -0.81200
O300        O  0.88030255  0.99835665  0.06523689    -0.76900
O301        O  0.78110052  0.79359389  0.01402700    -0.77000
O302        O  0.90434235  0.84945420  0.98697985    -0.76600
O303        O  0.99775544  0.05829509  0.03537548    -0.80100
O304        O  0.97229955  0.93773653  0.06600356    -0.79500
O305        O  0.91449620  0.81723960  0.03860919    -0.77900
Eu306      Eu  0.92525741  0.99855434  0.04328555     2.39800
Eu307      Eu  0.85676979  0.85056340  0.00768251     2.39600
Eu308      Eu  0.81819622  0.88803082  0.04324514     2.38400
Eu309      Eu  0.96380434  0.96213580  0.00759458     2.39900
Eu310      Eu  0.92829741  0.89113401  0.04440362     2.39800
O311        O  0.92892509  0.88992191  0.01724220    -0.92300
O312        O  0.89034377  0.92625529  0.05285414    -0.91200
C313        C  0.98313672  0.97603977  0.07144929     1.02900
C314        C  0.89311613  0.78790217  0.02821018     1.01600
C315        C  0.84279655  0.96998615  0.07108062     1.01000
C316        C  0.02626057  0.06565188  0.02473305     1.03000
C317        C  0.94218617  0.87758525  0.98131928     1.01900
C318        C  0.75265124  0.78793268  0.02449027     1.00800
C319        C  0.84325090  0.83431299  0.07170628     1.00800
C320        C  0.02879954  0.92554308  0.02549058     1.03400
H321        H  0.84089933  0.82261695  0.03883284     0.30800
O322        O  0.85578675  0.85230799  0.03490108    -1.04400
H323        H  0.99346620  0.97937691  0.03850682     0.32900
O324        O  0.96362530  0.96362723  0.03480658    -1.07000
O325        O  0.62403675  0.33157546  0.40168378    -0.79600
O326        O  0.53373870  0.12744529  0.35017138    -0.81100
O327        O  0.54541778  0.18120214  0.40223978    -0.78100
O328        O  0.66307588  0.24187322  0.37276011    -0.76500
O329        O  0.68062325  0.28059290  0.35009250    -0.78300
O330        O  0.47860036  0.17712561  0.40176463    -0.79200
O331        O  0.57666616  0.15106302  0.37179061    -0.80600
O332        O  0.62845664  0.26893753  0.40186496    -0.80900
Eu333      Eu  0.58756999  0.22313960  0.37945791     2.39200
O334        O  0.58712905  0.22209063  0.35222064    -0.88400
O335        O  0.54930089  0.25770906  0.38789432    -0.92000
C336        C  0.63649769  0.30607555  0.40770328     1.02700
C337        C  0.55668804  0.12286341  0.36089889     1.02500
C338        C  0.50705895  0.16884906  0.40792013     1.02500
C339        C  0.68922028  0.26209995  0.36137255     1.00300
H340        H  0.50061423  0.15361080  0.37405932     0.30100
O341        O  0.51468124  0.18337113  0.37022972    -1.00800
H342        H  0.65072667  0.31041850  0.37385912     0.30100
O343        O  0.62111904  0.29517800  0.36992881    -1.03300
O344        O  0.46921930  0.18205477  0.32078686    -0.80500
O345        O  0.57246970  0.39035665  0.36905078    -0.80100
O346        O  0.41815825  0.14399979  0.37190940    -0.78500
O347        O  0.62222358  0.24997091  0.32072164    -0.81800
O348        O  0.68173785  0.36641849  0.35099597    -0.79700
O349        O  0.47713061  0.26151874  0.40138444    -0.78300
O350        O  0.43491102  0.27108141  0.34995530    -0.79900
O351        O  0.55397537  0.33589650  0.32090724    -0.81800
O352        O  0.41580560  0.22939846  0.37191026    -0.78500
O353        O  0.62052865  0.33947344  0.32105378    -0.81200
O354        O  0.44071027  0.12461015  0.35006657    -0.76900
O355        O  0.53857190  0.32988750  0.40041605    -0.77000
O356        O  0.65848552  0.38644954  0.37247731    -0.76600
O357        O  0.55827745  0.18385210  0.32057136    -0.80100
O358        O  0.46904191  0.24705283  0.32004581    -0.79500
O359        O  0.52556107  0.36454310  0.34840567    -0.77900
Eu360      Eu  0.51455808  0.18336478  0.34289178     2.39800
Eu361      Eu  0.58301589  0.33011944  0.37855750     2.39600
Eu362      Eu  0.47669486  0.21827534  0.37910596     2.38400
Eu363      Eu  0.62140165  0.29434049  0.34271269     2.39900
Eu364      Eu  0.51020095  0.29010436  0.34263054     2.39800
O365        O  0.58320487  0.32907612  0.35145569    -0.92300
O366        O  0.47633982  0.21760015  0.35193931    -0.91200
C367        C  0.45820587  0.20872723  0.31470343     1.02900
C368        C  0.55017080  0.39490099  0.35807041     1.01600
C369        C  0.41233209  0.11732235  0.36074976     1.01000
C370        C  0.59623242  0.21154536  0.31489261     1.03000
C371        C  0.68780472  0.39268768  0.36232542     1.01900
C372        C  0.50222033  0.30069638  0.40666067     1.00800
C373        C  0.40773575  0.24907309  0.36091807     1.00800
C374        C  0.59268532  0.34946349  0.31538820     1.03400
H375        H  0.49423922  0.30557130  0.37340760     0.30800
O376        O  0.50982096  0.29128764  0.36982570    -1.04400
H377        H  0.54882570  0.25591013  0.32251529     0.32900
O378        O  0.54870136  0.25591928  0.33364234    -1.07000
O379        O  0.35325500  0.69926370  0.68411964    -0.79600
O380        O  0.14648400  0.58816197  0.73360228    -0.81100
O381        O  0.23903832  0.71787085  0.70472336    -0.78100
O382        O  0.30015089  0.65929066  0.73299129    -0.76500
O383        O  0.30003590  0.59419783  0.73335838    -0.78300
O384        O  0.19478039  0.69586914  0.68332739    -0.79200
O385        O  0.21040989  0.65452706  0.73435806    -0.80600
O386        O  0.32739132  0.72024848  0.70468411    -0.80900
Eu387      Eu  0.25401945  0.65893023  0.71169133     2.39200
O388        O  0.21771175  0.58531857  0.72004430    -0.88400
O389        O  0.25487413  0.66059496  0.68466728    -0.92000
C390        C  0.35717892  0.72694937  0.69462844     1.02700
C391        C  0.17303641  0.62542008  0.73998180     1.02500
C392        C  0.21669574  0.72369577  0.69410064     1.02500
C393        C  0.31228834  0.63307839  0.73861785     1.00300
H394        H  0.16558702  0.63636208  0.70609771     0.30100
O395        O  0.18125231  0.62246954  0.70218447    -1.00800
H396        H  0.32159584  0.63899996  0.70663359     0.30100
O397        O  0.29188869  0.62411380  0.70278893    -1.03300
O398        O  0.08669502  0.47687725  0.70141393    -0.80500
O399        O  0.29681276  0.58459804  0.65388635    -0.80100
O400        O  0.10690724  0.60523100  0.68102790    -0.78500
O401        O  0.20783559  0.50437404  0.73247528    -0.81800
O402        O  0.32809568  0.56269419  0.70400724    -0.79700
O403        O  0.23003249  0.67411216  0.65475979    -0.78300
O404        O  0.14042114  0.51752132  0.65249726    -0.79900
O405        O  0.20182961  0.45851087  0.68001940    -0.81800
O406        O  0.13866252  0.58148813  0.65247271    -0.78500
O407        O  0.24286172  0.47862565  0.70210402    -0.81200
O408        O  0.08647044  0.56200539  0.70261412    -0.76900
O409        O  0.29698593  0.67823055  0.65551563    -0.77000
O410        O  0.35004204  0.60844195  0.68308977    -0.76600
O411        O  0.14104132  0.50037313  0.73125563    -0.80100
O412        O  0.11149280  0.45782479  0.68009736    -0.79500
O413        O  0.23154685  0.51955769  0.65247107    -0.77900
Eu414      Eu  0.14575372  0.54860646  0.71019476     2.39800
Eu415      Eu  0.29371765  0.62704572  0.67571536     2.39600
Eu416      Eu  0.18265134  0.62410098  0.67494769     2.38400
Eu417      Eu  0.25520244  0.55025425  0.71115824     2.39900
Eu418      Eu  0.18569293  0.51719392  0.67401109     2.39800
O419        O  0.25713021  0.55376751  0.68407208    -0.92300
O420        O  0.14737477  0.55085501  0.68317600    -0.91200
C421        C  0.08192676  0.45058165  0.69027351     1.02900
C422        C  0.27070202  0.54684093  0.64776171     1.01600
C423        C  0.07908047  0.58239240  0.69167717     1.01000
C424        C  0.16834586  0.49056844  0.73736254     1.03000
C425        C  0.35589803  0.58496597  0.69328415     1.01900
C426        C  0.26987720  0.68953972  0.65010031     1.00800
C427        C  0.12742769  0.54314751  0.64695117     1.00800
C428        C  0.22348684  0.45202504  0.69071725     1.03400
H429        H  0.22264444  0.59204553  0.65433527     0.30800
O430        O  0.22171535  0.59077015  0.66547450    -1.04400
H431        H  0.16813137  0.48303548  0.70440280     0.32900
O432        O  0.18322067  0.51341134  0.70117305    -1.07000
O433        O  0.22593707  0.51524854  0.15108660    -0.79600
O434        O  0.33076182  0.71733684  0.20326148    -0.81100
O435        O  0.29197901  0.67081723  0.15235232    -0.78100
O436        O  0.35068984  0.60876697  0.18049482    -0.76500
O437        O  0.33044541  0.56839667  0.20285611    -0.78300
O438        O  0.22754570  0.67150662  0.15197051    -0.79200
O439        O  0.35235700  0.69533960  0.18183883    -0.80600
O440        O  0.28974886  0.58174597  0.15025258    -0.80900
Eu441      Eu  0.29188342  0.62365512  0.17339908     2.39200
O442        O  0.29110429  0.62277631  0.20051272    -0.88400
O443        O  0.21933294  0.58743899  0.16435360    -0.92000
C444        C  0.26274675  0.54322856  0.14476364     1.02700
C445        C  0.35919010  0.72276078  0.19284651     1.02500
C446        C  0.26610022  0.68339773  0.14668846     1.02500
C447        C  0.35777637  0.58919167  0.19179820     1.00300
H448        H  0.27172798  0.69079701  0.17907825     0.30100
O449        O  0.25631928  0.66050953  0.18259775    -1.00800
H450        H  0.27062935  0.53559760  0.17860892     0.30100
O451        O  0.25567240  0.55054589  0.18243476    -1.03300
O452        O  0.21072919  0.66079749  0.23117030    -0.80500
O453        O  0.10887000  0.45543717  0.18098206    -0.80100
O454        O  0.19647859  0.69660228  0.18108810    -0.78500
O455        O  0.29957109  0.59483490  0.23145545    -0.81800
O456        O  0.24047975  0.47662462  0.20213059    -0.79700
O457        O  0.14330468  0.58078664  0.15036217    -0.78300
O458        O  0.08667935  0.56442213  0.20167492    -0.79900
O459        O  0.14533868  0.50676949  0.23109704    -0.81800
O460        O  0.11020448  0.60969348  0.18052651    -0.78500
O461        O  0.20864725  0.50366296  0.23112783    -0.81200
O462        O  0.24131638  0.71848810  0.20230790    -0.76900
O463        O  0.14130940  0.51485031  0.15091320    -0.77000
O464        O  0.19710852  0.45590360  0.18065686    -0.76600
O465        O  0.30065047  0.66016580  0.23171362    -0.80100
O466        O  0.14463628  0.59690303  0.23098862    -0.79500
O467        O  0.08889195  0.47746414  0.20282508    -0.77900
Eu468      Eu  0.25590504  0.65969974  0.20977857     2.39800
Eu469      Eu  0.18273523  0.51471475  0.17347564     2.39600
Eu470      Eu  0.18351540  0.62411565  0.17328751     2.38400
Eu471      Eu  0.25500886  0.55018795  0.20966731     2.39900
Eu472      Eu  0.14654993  0.55188745  0.20946393     2.39800
O473        O  0.18237511  0.51497027  0.20055533    -0.92300
O474        O  0.18351784  0.62446028  0.20043378    -0.91200
C475        C  0.17178719  0.63526600  0.23655533     1.02900
C476        C  0.08201543  0.44933147  0.19211011     1.01600
C477        C  0.21867553  0.72439545  0.19182832     1.01000
C478        C  0.31196476  0.63317938  0.23720219     1.03000
C479        C  0.21856192  0.44898586  0.19127543     1.01900
C480        C  0.13222527  0.54260185  0.14469512     1.00800
C481        C  0.08166754  0.58712062  0.19099689     1.00800
C482        C  0.17046745  0.49321206  0.23658736     1.03400
H483        H  0.11560805  0.53570192  0.17831229     0.30800
O484        O  0.14607428  0.55105861  0.18224526    -1.04400
H485        H  0.21879513  0.58685051  0.23017229     0.32900
O486        O  0.21904762  0.58692627  0.21896081    -1.07000
O487        O  0.87376095  0.99302046  0.56332981    -0.79600
O488        O  0.78096394  0.78578180  0.51372696    -0.81100
O489        O  0.75290940  0.89524212  0.53402770    -0.78100
O490        O  0.81218908  0.83678073  0.56390286    -0.76500
O491        O  0.87888776  0.84048928  0.56504839    -0.78300
O492        O  0.77588185  0.93911597  0.51259641    -0.79200
O493        O  0.75611961  0.80824516  0.53420387    -0.80600
O494        O  0.80813790  0.92831606  0.56294749    -0.80900
Eu495      Eu  0.81269782  0.88258977  0.54221100     2.39200
O496        O  0.85157615  0.84836727  0.53388119    -0.88400
O497        O  0.84908793  0.95510570  0.53294401    -0.92000
C498        C  0.83453608  0.96716125  0.56833433     1.02700
C499        C  0.75185199  0.77981844  0.52391006     1.02500
C500        C  0.74726889  0.91713212  0.52315765     1.02500
C501        C  0.83948802  0.82657733  0.56993129     1.00300
H502        H  0.78501906  0.86646336  0.51098884     0.30100
O503        O  0.81455947  0.88213289  0.51500835    -1.00800
H504        H  0.88431754  0.92057156  0.56338831     0.30100
O505        O  0.88496115  0.92036162  0.55221388    -1.03300
O506        O  0.89981924  0.84931517  0.48545253    -0.80500
O507        O  0.99234928  0.05553635  0.53523919    -0.80100
O508        O  0.81028549  0.90978920  0.48319470    -0.78500
O509        O  0.91008738  0.81190496  0.53751311    -0.81800
O510        O  0.96870236  0.93188112  0.56489277    -0.79700
O511        O  0.86264203  0.02839113  0.51311089    -0.78300
O512        O  0.96095697  0.00191737  0.48492345    -0.79900
O513        O  0.02252043  0.94845154  0.51552923    -0.81800
O514        O  0.89559842  0.00078302  0.48429842    -0.78500
O515        O  0.99880215  0.90435691  0.53683491    -0.81200
O516        O  0.80928685  0.84420579  0.48431107    -0.76900
O517        O  0.90369449  0.04950625  0.53523398    -0.77000
O518        O  0.96659864  0.99579701  0.56494729    -0.76600
O519        O  0.86818566  0.78938424  0.51562812    -0.80100
O520        O  0.96439801  0.91500931  0.48550681    -0.79500
O521        O  0.01549479  0.03382979  0.51418200    -0.77900
Eu522      Eu  0.85340011  0.84733830  0.50684872     2.39800
Eu523      Eu  0.92104033  0.99292496  0.54274799     2.39600
Eu524      Eu  0.85030698  0.95502935  0.50582199     2.38400
Eu525      Eu  0.92368297  0.88597790  0.54346204     2.39900
Eu526      Eu  0.96097611  0.95819756  0.50716052     2.39800
O527        O  0.95975525  0.95867143  0.53431399    -0.92300
O528        O  0.88870507  0.92002907  0.49752662    -0.91200
C529        C  0.93809664  0.87649452  0.47992519     1.02900
C530        C  0.02007688  0.06260376  0.52436025     1.01600
C531        C  0.79911187  0.87112367  0.47799179     1.01000
C532        C  0.88874576  0.78332568  0.52687514     1.03000
C533        C  0.97964094  0.97006979  0.57040302     1.01900
C534        C  0.88252102  0.05567739  0.52429691     1.00800
C535        C  0.93432068  0.01310394  0.47900140     1.00800
C536        C  0.02826719  0.92728202  0.52662807     1.03400
H537        H  0.93642518  0.02244058  0.51183950     0.30800
O538        O  0.92226984  0.99259576  0.51559183    -1.04400
H539        H  0.94156937  0.87083124  0.51298665     0.32900
O540        O  0.92580250  0.88520924  0.51632897    -1.07000
C541        C  0.93283307  0.05892675  0.93925101    -0.13800
C542        C  0.97525826  0.09570048  0.93848197     0.16600
C543        C  0.00505650  0.10376117  0.95061057     0.02900
C544        C  0.99179406  0.07524561  0.96331527    -0.12300
C545        C  0.94887667  0.03927713  0.96434296    -0.03400
C546        C  0.91941665  0.03079741  0.95202567     0.02100
C547        C  0.98553039  0.12718240  0.92565895     0.09000
N548        N  0.04754822  0.14241080  0.95076878     0.65300
H549        H  0.01437770  0.08260746  0.97282197     0.18200
N550        N  0.87603843  0.99343302  0.95220525     0.75800
H551        H  0.90972422  0.05247470  0.92995288     0.09800
C552        C  0.01603403  0.13380271  0.91397618     0.03400
C553        C  0.02110944  0.16115009  0.90138861    -0.05300
C554        C  0.99569984  0.18161244  0.90012407    -0.23700
C555        C  0.96685363  0.17651941  0.91234803     0.12700
C556        C  0.96195183  0.14929530  0.92482987    -0.12800
N557        N  0.03963591  0.11060436  0.91413518     0.64400
H558        H  0.04318338  0.16427272  0.89215699     0.12200
N559        N  0.94224657  0.19873049  0.91237548     0.61000
H560        H  0.93910703  0.14501067  0.93395211     0.08400
O561        O  0.86980417  0.95660146  0.94775005    -0.40500
O562        O  0.84354558  0.99870520  0.95423507    -0.39600
O563        O  0.05124672  0.17868992  0.95462011    -0.39600
O564        O  0.08134341  0.13874837  0.95033353    -0.37300
O565        O  0.90090855  0.17672117  0.91325019    -0.38200
O566        O  0.96182818  0.23975873  0.91449044    -0.34400
O567        O  0.02038724  0.07075225  0.91010404    -0.35800
O568        O  0.08097233  0.13179947  0.91511618    -0.40100
C569        C  0.77780388  0.22568623  0.84619032    -0.13800
C570        C  0.80652643  0.24458495  0.85873918     0.16600
C571        C  0.79644063  0.26610035  0.87038320     0.02900
C572        C  0.75648136  0.26544187  0.86991895    -0.12300
C573        C  0.72744817  0.24590279  0.85756202    -0.03400
C574        C  0.73860959  0.22674514  0.84541568     0.02100
C575        C  0.84476692  0.23821240  0.86035503     0.09000
N576        N  0.82732441  0.29033031  0.88234384     0.65300
H577        H  0.74868150  0.28159092  0.87898883     0.18200
N578        N  0.70964143  0.20667209  0.83260867     0.75800
H579        H  0.78530413  0.20910637  0.83720086     0.09800
C580        C  0.84688360  0.21321241  0.87264626     0.03400
C581        C  0.88426231  0.20974054  0.87464609    -0.05300
C582        C  0.91996625  0.22976832  0.86437464    -0.23700
C583        C  0.91662603  0.25280275  0.85147508     0.12700
C584        C  0.87938871  0.25728469  0.84972710    -0.12800
N585        N  0.81052642  0.18965453  0.88287315     0.64400
H586        H  0.88469865  0.19038097  0.88427727     0.12200
N587        N  0.95002887  0.27116362  0.83992161     0.61000
H588        H  0.87745787  0.27571173  0.84002395     0.08400
O589        O  0.68060451  0.16650771  0.83321390    -0.40500
O590        O  0.71764794  0.22689459  0.81991651    -0.39600
O591        O  0.86394155  0.32313463  0.87881762    -0.39600
O592        O  0.81513823  0.28443146  0.89626063    -0.37300
O593        O  0.95122666  0.24645323  0.82962743    -0.38200
O594        O  0.97213765  0.31231618  0.83816773    -0.34400
O595        O  0.77694551  0.15519704  0.87816497    -0.35800
O596        O  0.81542753  0.19782567  0.89715135    -0.40100
C597        C  0.14695161  0.36139983  0.79223591    -0.13800
C598        C  0.12182475  0.38196863  0.79159110     0.16600
C599        C  0.08866173  0.37114246  0.80262006     0.02900
C600        C  0.08232840  0.34120376  0.81445419    -0.12300
C601        C  0.10874453  0.32175545  0.81548554    -0.03400
C602        C  0.14066967  0.33142791  0.80389407     0.02100
C603        C  0.13076742  0.41357373  0.77890849     0.09000
N604        N  0.06264261  0.39178604  0.80236045     0.65300
H605        H  0.05775824  0.33451370  0.82317517     0.18200
N606        N  0.16647879  0.31050789  0.80351516     0.75800
H607        H  0.17155332  0.36843801  0.78347181     0.09800
C608        C  0.17319541  0.45020893  0.77711761     0.03400
C609        C  0.18474259  0.47389116  0.76333398    -0.05300
C610        C  0.15422190  0.46302475  0.75138545    -0.23700
C611        C  0.11090709  0.42768078  0.75342478     0.12700
C612        C  0.09959324  0.40308902  0.76714324    -0.12800
N613        N  0.20484844  0.46369586  0.78928583     0.64400
H614        H  0.21764208  0.50151031  0.76203411     0.12200
N615        N  0.07923391  0.41427411  0.74125912     0.61000
H616        H  0.06719188  0.37434567  0.76826215     0.08400
O617        O  0.20733883  0.33288483  0.80584920    -0.40500
O618        O  0.14995893  0.27197727  0.79824849    -0.39600
O619        O  0.02231582  0.36947500  0.79910959    -0.39600
O620        O  0.07829821  0.43028987  0.80756194    -0.37300
O621        O  0.08110750  0.39241129  0.73005165    -0.38200
O622        O  0.04606109  0.41867695  0.74278587    -0.34400
O623        O  0.24051311  0.46424912  0.78713039    -0.35800
O624        O  0.20005886  0.48123768  0.80125472    -0.40100
C625        C  0.21314037  0.22493840  0.86051925    -0.13800
C626        C  0.25405470  0.25875149  0.85534186     0.16600
C627        C  0.25668599  0.29549479  0.84786633     0.02900
C628        C  0.21861314  0.29723968  0.84511574    -0.12300
C629        C  0.17730890  0.26292943  0.84978464    -0.03400
C630        C  0.17474401  0.22665076  0.85776389     0.02100
C631        C  0.29305863  0.25344982  0.85614907     0.09000
N632        N  0.29801066  0.33134930  0.84298632     0.65300
H633        H  0.22152541  0.32585406  0.83928897     0.18200
N634        N  0.13333481  0.18990440  0.86206507     0.75800
H635        H  0.21074012  0.19614215  0.86602563     0.09800
C636        C  0.31070879  0.24994133  0.87029818     0.03400
C637        C  0.34836434  0.24608713  0.87040339    -0.05300
C638        C  0.36955102  0.24675288  0.85661582    -0.23700
C639        C  0.35080582  0.24875377  0.84242887     0.12700
C640        C  0.31283816  0.25188731  0.84232875    -0.12800
N641        N  0.29232489  0.25287105  0.88462092     0.64400
H642        H  0.36214827  0.24442092  0.88133124     0.12200
N643        N  0.36910560  0.24634241  0.82801575     0.61000
H644        H  0.29867171  0.25317517  0.83135890     0.08400
O645        O  0.12325466  0.18212335  0.87614471    -0.40500
O646        O  0.11025268  0.16152832  0.85205702    -0.39600
O647        O  0.30676593  0.33801626  0.82878253    -0.39600
O648        O  0.32303377  0.35963053  0.85269726    -0.37300
O649        O  0.35896433  0.20923733  0.82250877    -0.38200
O650        O  0.38826171  0.28007932  0.81958251    -0.34400
O651        O  0.27337520  0.21959740  0.89327296    -0.35800
O652        O  0.30134364  0.29006124  0.88972529    -0.40100
C653        C  0.01841072  0.46342456  0.07917390    -0.13800
C654        C  0.01805103  0.48898053  0.09154948     0.16600
C655        C  0.99009846  0.50664267  0.09095135     0.02900
C656        C  0.96429869  0.50006478  0.07792211    -0.12300
C657        C  0.96609986  0.47659517  0.06511996    -0.03400
C658        C  0.99297055  0.45743534  0.06588797     0.02100
C659        C  0.04990303  0.50119589  0.10435890     0.09000
N660        N  0.98864074  0.53261871  0.10335502     0.65300
H661        H  0.94348749  0.51454875  0.07769282     0.18200
N662        N  0.99810044  0.43567457  0.05282567     0.75800
H663        H  0.04042585  0.45034400  0.07945401     0.09800
C664        C  0.04781210  0.47003575  0.11502072     0.03400
C665        C  0.07623407  0.48401575  0.12774002    -0.05300
C666        C  0.10636258  0.52888695  0.13020607    -0.23700
C667        C  0.11015128  0.55965391  0.11896619     0.12700
C668        C  0.08203058  0.54557971  0.10619755    -0.12800
N669        N  0.01560229  0.42451835  0.11352828     0.64400
H670        H  0.07353906  0.45976439  0.13602651     0.12200
N671        N  0.14316311  0.60501775  0.12008943     0.61000
H672        H  0.08498360  0.56955765  0.09770260     0.08400
O673        O  0.98288504  0.39467771  0.05321054    -0.40500
O674        O  0.02419161  0.45817418  0.04217521    -0.39600
O675        O  0.00981300  0.57400545  0.10232550    -0.39600
O676        O  0.96048129  0.51447608  0.11389679    -0.37300
O677        O  0.13218895  0.63340177  0.12275523    -0.38200
O678        O  0.18179912  0.61728534  0.11575122    -0.34400
O679        O  0.02739341  0.39733425  0.10984496    -0.35800
O680        O  0.97734308  0.41065042  0.11863445    -0.40100
C681        C  0.87352401  0.59026526  0.02395693    -0.13800
C682        C  0.90697076  0.63029534  0.03003658     0.16600
C683        C  0.94291558  0.63102777  0.03752858     0.02900
C684        C  0.94448217  0.59234745  0.03901635    -0.12300
C685        C  0.91107512  0.55225032  0.03303081    -0.03400
C686        C  0.87543837  0.55149626  0.02526799     0.02100
C687        C  0.90255724  0.67020415  0.02943462     0.09000
N688        N  0.97852952  0.67094245  0.04353731     0.65300
H689        H  0.97249469  0.59394589  0.04484077     0.18200
N690        N  0.83976330  0.51137233  0.01944726     0.75800
H691        H  0.84504983  0.58874849  0.01855807     0.09800
C692        C  0.89288220  0.68470701  0.01557276     0.03400
C693        C  0.88778261  0.72168364  0.01562926    -0.05300
C694        C  0.89393034  0.74609758  0.02914481    -0.23700
C695        C  0.90264554  0.73094414  0.04311079     0.12700
C696        C  0.90627742  0.69311757  0.04313732    -0.12800
N697        N  0.89008802  0.66349882  0.00121064     0.64400
H698        H  0.88048362  0.73224511  0.00487927     0.12200
N699        N  0.90637952  0.75254213  0.05747573     0.61000
H700        H  0.91157745  0.68130845  0.05402219     0.08400
O701        O  0.83891575  0.50180513  0.00537102    -0.40500
O702        O  0.80594331  0.48959958  0.02761889    -0.39600
O703        O  0.98440700  0.67563260  0.05794574    -0.39600
O704        O  0.00878404  0.69682420  0.03459031    -0.37300
O705        O  0.87224590  0.74269324  0.06514629    -0.38200
O706        O  0.94358958  0.77521961  0.06370129    -0.34400
O707        O  0.85411212  0.64444991  0.99397576    -0.35800
O708        O  0.92483496  0.67069446  0.99450586    -0.40100
C709        C  0.89325730  0.16395821  0.00713944    -0.13800
C710        C  0.88772342  0.18255641  0.02062952     0.16600
C711        C  0.88525260  0.16255284  0.03499003     0.02900
C712        C  0.88802478  0.12422097  0.03559326    -0.12300
C713        C  0.89208960  0.10473323  0.02202849    -0.03400
C714        C  0.89544851  0.12538992  0.00770541     0.02100
C715        C  0.88211777  0.22133370  0.01918875     0.09000
N716        N  0.87698223  0.17898897  0.04889280     0.65300
H717        H  0.88490231  0.10848426  0.04665775     0.18200
N718        N  0.90226064  0.10828086  0.99368822     0.75800
H719        H  0.89555096  0.17937311  0.99606964     0.09800
C720        C  0.91445999  0.26345442  0.02420826     0.03400
C721        C  0.90847909  0.29951180  0.02178674    -0.05300
C722        C  0.87106877  0.29450810  0.01407900    -0.23700
C723        C  0.83841760  0.25200448  0.00933212     0.12700
C724        C  0.84423290  0.21603120  0.01192230    -0.12800
N725        N  0.95466955  0.27058803  0.03086319     0.64400
H726        H  0.93410627  0.33186536  0.02538912     0.12200
N727        N  0.79855896  0.24449104  0.00226637     0.61000
H728        H  0.81904082  0.18364591  0.00815318     0.08400
O729        O  0.87061368  0.08729262  0.98449887    -0.40500
O730        O  0.94087097  0.12066215  0.98928735    -0.39600
O731        O  0.83856292  0.17106758  0.05170760    -0.39600
O732        O  0.90511124  0.19277864  0.05960189    -0.37300
O733        O  0.79380097  0.23907995  0.98784852    -0.38200
O734        O  0.76554728  0.23468130  0.01059167    -0.34400
O735        O  0.98494166  0.27419364  0.02214339    -0.35800
O736        O  0.96321665  0.28226221  0.04479734    -0.40100
C737        C  0.79718611  0.35317557  0.95430250    -0.13800
C738        C  0.76187890  0.36042207  0.95619920     0.16600
C739        C  0.75630701  0.37629750  0.97044615     0.02900
C740        C  0.78480126  0.38250737  0.98277011    -0.12300
C741        C  0.81840443  0.37244166  0.98112742    -0.03400
C742        C  0.82543266  0.35914534  0.96659172     0.02100
C743        C  0.72872299  0.34583587  0.94374339     0.09000
N744        N  0.72019010  0.38325262  0.97289518     0.65300
H745        H  0.77906342  0.39276365  0.99389156     0.18200
N746        N  0.86135030  0.35189035  0.96412314     0.75800
H747        H  0.80200062  0.34148537  0.94332095     0.09800
C748        C  0.72714310  0.37543637  0.93319839     0.03400
C749        C  0.69807398  0.35928098  0.92063827    -0.05300
C750        C  0.67061794  0.31373568  0.91826237    -0.23700
C751        C  0.67159345  0.28431587  0.92916283     0.12700
C752        C  0.70056810  0.30057624  0.94169719    -0.12800
N753        N  0.75628369  0.42173919  0.93465058     0.64400
H754        H  0.69812607  0.38255045  0.91241977     0.12200
N755        N  0.64293522  0.23788955  0.92785994     0.61000
H756        H  0.70152705  0.27762385  0.94982595     0.08400
O757        O  0.89810840  0.38363153  0.96009996    -0.40500
O758        O  0.85436741  0.31313059  0.96312428    -0.39600
O759        O  0.68491461  0.35259996  0.97844481    -0.39600
O760        O  0.72662863  0.42190384  0.97276625    -0.37300
O761        O  0.65801774  0.21396284  0.92342633    -0.38200
O762        O  0.60508145  0.22029234  0.93372440    -0.34400
O763        O  0.79338767  0.43925371  0.92821501    -0.35800
O764        O  0.74172980  0.44579383  0.93944325    -0.40100
C765        C  0.89260494  0.58352928  0.19982654    -0.13800
C766        C  0.92373294  0.59711257  0.18796846     0.16600
C767        C  0.91744773  0.61551118  0.17447243     0.02900
C768        C  0.88102132  0.62105880  0.17319087    -0.12300
C769        C  0.84953433  0.60794438  0.18506431    -0.03400
C770        C  0.85567738  0.58867801  0.19849478     0.02100
C771        C  0.96377481  0.59395720  0.18998880     0.09000
N772        N  0.94718002  0.62759177  0.16175539     0.65300
H773        H  0.87727205  0.63521057  0.16259340     0.18200
N774        N  0.82582457  0.57558350  0.21112693     0.75800
H775        H  0.89740715  0.56954742  0.21029101     0.09800
C776        C  0.00507248  0.63217605  0.19201078     0.03400
C777        C  0.04312283  0.62918505  0.19218955    -0.05300
C778        C  0.04066541  0.58838970  0.19085135    -0.23700
C779        C  0.99939243  0.54988281  0.18936464     0.12700
C780        C  0.96118762  0.55290927  0.18889431    -0.12800
N781        N  0.00868705  0.67404912  0.19437643     0.64400
H782        H  0.07474745  0.65880527  0.19366856     0.12200
N783        N  0.99616535  0.50802145  0.18741270     0.61000
H784        H  0.92961404  0.52341942  0.18720649     0.08400
O785        O  0.83541206  0.60064415  0.22265806    -0.40500
O786        O  0.79520439  0.53613134  0.21213992    -0.39600
O787        O  0.94636210  0.59793695  0.15335008    -0.39600
O788        O  0.96771718  0.66699978  0.15720085    -0.37300
O789        O  0.00680307  0.49842871  0.17472845    -0.38200
O790        O  0.98572688  0.48191053  0.19868307    -0.34400
O791        O  0.00108958  0.68370138  0.20759324    -0.35800
O792        O  0.02820505  0.70410712  0.18450241    -0.40100
C793        C  0.75883369  0.71062245  0.13525586    -0.13800
C794        C  0.79240198  0.71814137  0.12479486     0.16600
C795        C  0.81888681  0.69963712  0.12791091     0.02900
C796        C  0.81268686  0.67554057  0.14140898    -0.12300
C797        C  0.78030145  0.66901933  0.15229375    -0.03400
C798        C  0.75263304  0.68639559  0.14895304     0.02100
C799        C  0.80307218  0.74887363  0.11152260     0.09000
N800        N  0.85261515  0.70524770  0.11743037     0.65300
H801        H  0.83392349  0.66200589  0.14332321     0.18200
N802        N  0.71976718  0.68186521  0.15962946     0.75800
H803        H  0.73858544  0.72518117  0.13311206     0.09800
C804        C  0.77321841  0.74105658  0.09940730     0.03400
C805        C  0.78618677  0.77008062  0.08676323    -0.05300
C806        C  0.82899505  0.80657573  0.08583016    -0.23700
C807        C  0.85826007  0.81494745  0.09819846     0.12700
C808        C  0.84504658  0.78635488  0.11085747    -0.12800
N809        N  0.73072041  0.70246231  0.09932349     0.64400
H810        H  0.76333393  0.76295547  0.07732375     0.12200
N811        N  0.90141039  0.85269457  0.09818954     0.61000
H812        H  0.86787314  0.79348504  0.12030287     0.08400
O813        O  0.67986304  0.65481534  0.15689862    -0.40500
O814        O  0.72985367  0.70947825  0.17038343    -0.39600
O815        O  0.89236132  0.73092716  0.12086628    -0.39600
O816        O  0.84318616  0.67911300  0.10623016    -0.37300
O817        O  0.90645731  0.89074738  0.09715353    -0.38200
O818        O  0.93429014  0.84818445  0.10047911    -0.34400
O819        O  0.69710936  0.70569347  0.10158196    -0.35800
O820        O  0.72631271  0.66667498  0.09446521    -0.40100
C821        C  0.67974407  0.48715965  0.25637164    -0.13800
C822        C  0.63779558  0.45039297  0.25854922     0.16600
C823        C  0.60492133  0.44098618  0.24749537     0.02900
C824        C  0.61388633  0.46885543  0.23482606    -0.12300
C825        C  0.65529138  0.50671831  0.23284107    -0.03400
C826        C  0.68869688  0.51561144  0.24373333     0.02100
C827        C  0.62727028  0.42494463  0.27316035     0.09000
N828        N  0.56210579  0.40320941  0.24903328     0.65300
H829        H  0.58800873  0.46077155  0.22647675     0.18200
N830        N  0.73054725  0.55496515  0.24291787     0.75800
H831        H  0.70493134  0.49525857  0.26502439     0.09800
C832        C  0.64874618  0.40199530  0.27751397     0.03400
C833        C  0.63779373  0.37848687  0.29143848    -0.05300
C834        C  0.60559939  0.37745405  0.30129621    -0.23700
C835        C  0.58513151  0.40177471  0.29709433     0.12700
C836        C  0.59591108  0.42487840  0.28311276    -0.12800
N837        N  0.68061327  0.40097132  0.26764363     0.64400
H838        H  0.65384784  0.36002763  0.29432695     0.12200
N839        N  0.55469279  0.40492950  0.30713895     0.61000
H840        H  0.58018283  0.44358606  0.28011392     0.08400
O841        O  0.76499520  0.55252572  0.24371906    -0.40500
O842        O  0.73304993  0.59164799  0.24498264    -0.39600
O843        O  0.52979257  0.40800549  0.25211720    -0.39600
O844        O  0.55556413  0.36598537  0.24495030    -0.37300
O845        O  0.56885612  0.43338976  0.31773406    -0.38200
O846        O  0.51436734  0.38501157  0.30378158    -0.34400
O847        O  0.72083381  0.42345051  0.27103180    -0.35800
O848        O  0.66828841  0.37227414  0.25716813    -0.40100
C849        C  0.51020615  0.54086487  0.19956611    -0.13800
C850        C  0.51642331  0.57977766  0.19291386     0.16600
C851        C  0.55901278  0.61272265  0.18867464     0.02900
C852        C  0.59485767  0.60662215  0.19146124    -0.12300
C853        C  0.58895326  0.56813436  0.19864273    -0.03400
C854        C  0.54576863  0.53465813  0.20242755     0.02100
C855        C  0.47821894  0.58628182  0.19177531     0.09000
N856        N  0.56649235  0.65312975  0.18208225     0.65300
H857        H  0.62755965  0.63279376  0.18851245     0.18200
N858        N  0.53721952  0.49396224  0.20911752     0.75800
H859        H  0.47744714  0.51532644  0.20279584     0.09800
C860        C  0.45066487  0.57258511  0.17871287     0.03400
C861        C  0.41234451  0.57537202  0.17870880    -0.05300
C862        C  0.40006493  0.58995325  0.19184211    -0.23700
C863        C  0.42772595  0.60360561  0.20491700     0.12700
C864        C  0.46667232  0.60206996  0.20472069    -0.12800
N865        N  0.45982111  0.55333273  0.16579091     0.64400
H866        H  0.39104450  0.56418310  0.16867330     0.12200
N867        N  0.41653831  0.61870693  0.21851845     0.61000
H868        H  0.48742922  0.61206785  0.21489599     0.08400
O869        O  0.53380477  0.46352886  0.20049562    -0.40500
O870        O  0.52499676  0.48561955  0.22300317    -0.39600
O871        O  0.57938694  0.68651783  0.19057191    -0.39600
O872        O  0.56777940  0.65746249  0.16760201    -0.37300
O873        O  0.40308701  0.59418435  0.23025308    -0.38200
O874        O  0.42855822  0.65890469  0.21986173    -0.34400
O875        O  0.44469561  0.51233965  0.16548705    -0.35800
O876        O  0.47621076  0.57571886  0.15371386    -0.40100
C877        C  0.33818765  0.79008013  0.62490127    -0.13800
C878        C  0.30878894  0.78214635  0.61272649     0.16600
C879        C  0.26704826  0.74390674  0.61293139     0.02900
C880        C  0.25525162  0.71461467  0.62529559    -0.12300
C881        C  0.28458947  0.72194903  0.63739806    -0.03400
C882        C  0.32636427  0.76034629  0.63724849     0.02100
C883        C  0.32149073  0.81424098  0.59997914     0.09000
N884        N  0.23683713  0.73366831  0.60042732     0.65300
H885        H  0.22321300  0.68536117  0.62529635     0.18200
N886        N  0.35574114  0.77106904  0.65001890     0.75800
H887        H  0.37003234  0.81986039  0.62495353     0.09800
C888        C  0.30348317  0.84180966  0.59871957     0.03400
C889        C  0.31260994  0.86860508  0.58573873    -0.05300
C890        C  0.33960875  0.86873537  0.57375332    -0.23700
C891        C  0.35965953  0.84279287  0.57551149     0.12700
C892        C  0.35017992  0.81565748  0.58852632    -0.12800
N893        N  0.27593151  0.84306488  0.61055311     0.64400
H894        H  0.29782964  0.88905754  0.58499922     0.12200
N895        N  0.38839546  0.84225852  0.56402982     0.61000
H896        H  0.36444954  0.79474373  0.58951665     0.08400
O897        O  0.35227560  0.79131252  0.66144290    -0.40500
O898        O  0.38915099  0.76695437  0.64879866    -0.39600
O899        O  0.24421082  0.72124416  0.58769617    -0.39600
O900        O  0.19935306  0.72867903  0.60296714    -0.37300
O901        O  0.42898377  0.86962879  0.56484939    -0.38200
O902        O  0.37491699  0.80954791  0.55516127    -0.34400
O903        O  0.29309653  0.87037856  0.62142296    -0.35800
O904        O  0.23511781  0.82499788  0.60825311    -0.40100
C905        C  0.21037827  0.93606329  0.54883135    -0.13800
C906        C  0.19320845  0.92877422  0.53381998     0.16600
C907        C  0.21748302  0.92467728  0.52165573     0.02900
C908        C  0.25737617  0.92632364  0.52479497    -0.12300
C909        C  0.27313770  0.93086338  0.53999468    -0.03400
C910        C  0.24957506  0.93671626  0.55205400     0.02100
C911        C  0.15037759  0.92648387  0.53119915     0.09000
N912        N  0.20063368  0.91585621  0.50624592     0.65300
H913        H  0.27461284  0.92122978  0.51541181     0.18200
N914        N  0.26498616  0.94356059  0.56765767     0.75800
H915        H  0.19311563  0.94123448  0.55818529     0.09800
C916        C  0.11317580  0.89830762  0.54007244     0.03400
C917        C  0.07429366  0.89934948  0.53833654    -0.05300
C918        C  0.07109532  0.92830760  0.52789659    -0.23700
C919        C  0.10869311  0.95685277  0.51907434     0.12700
C920        C  0.14756499  0.95535781  0.52071317    -0.12800
N921        N  0.11421339  0.86806330  0.55086517     0.64400
H922        H  0.04629007  0.87685917  0.54524234     0.12200
N923        N  0.10933207  0.98981573  0.50927661     0.61000
H924        H  0.17637293  0.97835447  0.51424183     0.08400
O925        O  0.24123361  0.91720529  0.57806343    -0.40500
O926        O  0.29836725  0.97951254  0.57141062    -0.39600
O927        O  0.22108164  0.94322939  0.49564663    -0.39600
O928        O  0.16919219  0.87821633  0.50283570    -0.37300
O929        O  0.11563702  0.02520216  0.51523349    -0.38200
O930        O  0.11492728  0.98847130  0.49495506    -0.34400
O931        O  0.10980761  0.87238823  0.56509992    -0.35800
O932        O  0.11314474  0.83373148  0.54604652    -0.40100
C933        C  0.43506328  0.05281529  0.47298120    -0.13800
C934        C  0.45774236  0.05061837  0.46005248     0.16600
C935        C  0.47254413  0.02028922  0.45994403     0.02900
C936        C  0.46619550  0.99392857  0.47287805    -0.12300
C937        C  0.44482240  0.99678977  0.48614089    -0.03400
C938        C  0.42835910  0.02618354  0.48597809     0.02100
C939        C  0.46910747  0.08242281  0.44722539     0.09000
N940        N  0.49410165  0.01593457  0.44669111     0.65300
H941        H  0.47820062  0.97106753  0.47249643     0.18200
N942        N  0.40697777  0.03126976  0.49915029     0.75800
H943        H  0.42373428  0.07628915  0.47317014     0.09800
C944        C  0.43764132  0.07835025  0.43631662     0.03400
C945        C  0.45019205  0.10839386  0.42407627    -0.05300
C946        C  0.49410017  0.14191025  0.42221860    -0.23700
C947        C  0.52512154  0.14717073  0.43361389     0.12700
C948        C  0.51245860  0.11732219  0.44591640    -0.12800
N949        N  0.39350658  0.04242156  0.43701643     0.64400
H950        H  0.42586257  0.10427514  0.41559096     0.12200
N951        N  0.56903275  0.18365550  0.43321056     0.61000
H952        H  0.53657741  0.12140384  0.45453075     0.08400
O953        O  0.36559032  0.01085562  0.49975586    -0.40500
O954        O  0.42886802  0.06162800  0.50870609    -0.39600
O955        O  0.53510413  0.03155973  0.44688392    -0.39600
O956        O  0.47159892  0.99166448  0.43564237    -0.37300
O957        O  0.57683740  0.22069196  0.43807367    -0.38200
O958        O  0.60057067  0.17733691  0.43047938    -0.34400
O959        O  0.36233481  0.04974369  0.43907683    -0.35800
O960        O  0.38519136  0.00448242  0.43307693    -0.40100
C961        C  0.66032598  0.94922004  0.51563508    -0.13800
C962        C  0.62267546  0.91305095  0.52171482     0.16600
C963        C  0.62595996  0.87823977  0.52833201     0.02900
C964        C  0.66681024  0.88037526  0.52889099    -0.12300
C965        C  0.70475192  0.91660124  0.52272571    -0.03400
C966        C  0.70106731  0.95137702  0.51608113     0.02100
C967        C  0.58036075  0.91233780  0.52052574     0.09000
N968        N  0.58786208  0.83974594  0.53390150     0.65300
H969        H  0.66858074  0.85301699  0.53384485     0.18200
N970        N  0.73852472  0.98976401  0.51010683     0.75800
H971        H  0.65806506  0.97616765  0.51054378     0.09800
C972        C  0.56187889  0.92195662  0.53328190     0.03400
C973        C  0.52427542  0.92561034  0.53127741    -0.05300
C974        C  0.50566203  0.92154879  0.51656721    -0.23700
C975        C  0.52366001  0.91068487  0.50390783     0.12700
C976        C  0.56052421  0.90602021  0.50600889    -0.12800
N977        N  0.58318700  0.93200118  0.54799469     0.64400
H978        H  0.51148821  0.93472487  0.54107429     0.12200
N979        N  0.50510308  0.90452913  0.48880200     0.61000
H980        H  0.57452030  0.89857255  0.49614428     0.08400
O981        O  0.74466114  0.99415645  0.49571366    -0.40500
O982        O  0.76055919  0.02227753  0.51885293    -0.39600
O983        O  0.56753944  0.80706119  0.52507155    -0.39600
O984        O  0.58023868  0.83505489  0.54820640    -0.37300
O985        O  0.52569311  0.93281371  0.47846894    -0.38200
O986        O  0.47365268  0.86728880  0.48500998    -0.34400
O987        O  0.61753100  0.96872610  0.55005780    -0.35800
O988        O  0.56381617  0.90795774  0.55948239    -0.40100
C989        C  0.23861076  0.92199416  0.69732495    -0.13800
C990        C  0.22994878  0.89217979  0.68525723     0.16600
C991        C  0.22062628  0.90176222  0.67044493     0.02900
C992        C  0.21770087  0.93945012  0.66809126    -0.12300
C993        C  0.22412864  0.96846140  0.68028171    -0.03400
C994        C  0.23585222  0.95999178  0.69496596     0.02100
C995        C  0.22648048  0.84925016  0.68850213     0.09000
N996        N  0.21424316  0.87347716  0.65766348     0.65300
H997        H  0.21024747  0.94594468  0.65659113     0.18200
N998        N  0.24230405  0.98792036  0.70782586     0.75800
H999        H  0.24551967  0.91469362  0.70879970     0.09800
C1000       C  0.26242205  0.84626849  0.69408950     0.03400
C1001       C  0.25783264  0.80491698  0.69676690    -0.05300
C1002       C  0.21793657  0.76623198  0.69372424    -0.23700
C1003       C  0.18139173  0.76932290  0.68879828     0.12700
C1004       C  0.18598518  0.81066325  0.68620961    -0.12800
N1005       N  0.30444058  0.88479966  0.69612819     0.64400
H1006       H  0.28630901  0.80306920  0.70039321     0.12200
N1007       N  0.13923111  0.73085730  0.68676084     0.61000
H1008       H  0.15774521  0.81271339  0.68241519     0.08400
O1009       O  0.28018458  0.01060238  0.71355779    -0.40500
O1010       O  0.20944320  0.98384151  0.71507395    -0.39600
O1011       O  0.17711117  0.85256439  0.65124585    -0.39600
O1012       O  0.24688377  0.87374179  0.65159822    -0.37300
O1013       O  0.12339952  0.71923952  0.67337440    -0.38200
O1014       O  0.11519013  0.71269313  0.69835838    -0.34400
O1015       O  0.32111537  0.89535376  0.70944009    -0.35800
O1016       O  0.32740340  0.90453931  0.68447574    -0.40100
C1017       C  0.09652559  0.98128662  0.62946889    -0.13800
C1018       C  0.09562463  0.01752982  0.62323283     0.16600
C1019       C  0.11937591  0.05851328  0.63075903     0.02900
C1020       C  0.14559580  0.06301731  0.64368456    -0.12300
C1021       C  0.14832250  0.02703483  0.64947422    -0.03400
C1022       C  0.12223958  0.98540726  0.64233991     0.02100
C1023       C  0.06925929  0.01080565  0.60895349     0.09000
N1024       N  0.11819438  0.09611349  0.62519328     0.65300
H1025       H  0.16462887  0.09512309  0.64896584     0.18200
N1026       N  0.12084651  0.94653461  0.64799450     0.75800
H1027       H  0.07679822  0.94910931  0.62429198     0.09800
C1028       C  0.07487369  0.98998447  0.59592949     0.03400
C1029       C  0.04536641  0.97717642  0.58357917    -0.05300
C1030       C  0.01034672  0.98535807  0.58367648    -0.23700
C1031       C  0.00536497  0.00739825  0.59640568     0.12700
C1032       C  0.03470645  0.01989180  0.60892406    -0.12800
N1033       N  0.11054431  0.98162554  0.59507814     0.64400
H1034       H  0.05011507  0.96097393  0.57375449     0.12200
N1035       N  0.96855428  0.01386424  0.59735007     0.61000
H1036       H  0.02893406  0.03444180  0.61899941     0.08400
O1037       O  0.13761455  0.92861145  0.64010696    -0.40500
O1038       O  0.09589273  0.92578040  0.65912755    -0.39600
O1039       O  0.09495414  0.10870098  0.63208650    -0.39600
O1040       O  0.14629356  0.12117228  0.61546521    -0.37300
O1041       O  0.93037258  0.98120355  0.59885449    -0.38200
O1042       O  0.97406670  0.05210688  0.59647869    -0.34400
O1043       O  0.10289674  0.94252938  0.59504566    -0.35800
O1044       O  0.14842985  0.01255069  0.59169350    -0.40100
C1045       C  0.28839893  0.30769917  0.69336368    -0.13800
C1046       C  0.24647747  0.29976605  0.68931188     0.16600
C1047       C  0.21404509  0.25685507  0.68496273     0.02900
C1048       C  0.22307556  0.22236807  0.68575972    -0.12300
C1049       C  0.26405164  0.22982685  0.69093643    -0.03400
C1050       C  0.29743747  0.27335500  0.69420744     0.02100
C1051       C  0.23753195  0.33677115  0.68987706     0.09000
N1052       N  0.17096061  0.24723201  0.68066370     0.65300
H1053       H  0.19702857  0.18923171  0.68320096     0.18200
N1054       N  0.34084898  0.28332427  0.69825094     0.75800
H1055       H  0.31426707  0.34083514  0.69603271     0.09800
C1056       C  0.24603338  0.36212574  0.70338897     0.03400
C1057       C  0.24073567  0.39888097  0.70336979    -0.05300
C1058       C  0.22679772  0.41144499  0.69007997    -0.23700
C1059       C  0.21762324  0.38554257  0.67656445     0.12700
C1060       C  0.22315365  0.34872661  0.67659544    -0.12800
N1061       N  0.25967446  0.35067164  0.71733525     0.64400
H1062       H  0.24751071  0.41758928  0.71395504     0.12200
N1063       N  0.20446670  0.39700620  0.66252122     0.61000
H1064       H  0.21743259  0.33015921  0.66603050     0.08400
O1065       O  0.36750375  0.28782522  0.68772954    -0.40500
O1066       O  0.35480627  0.29539708  0.71181874    -0.39600
O1067       O  0.15901652  0.23901325  0.66673944    -0.39600
O1068       O  0.14267923  0.23901097  0.69099711    -0.37300
O1069       O  0.16445213  0.37713354  0.65872583    -0.38200
O1070       O  0.23315630  0.42111604  0.65278131    -0.34400
O1071       O  0.29758934  0.37594876  0.72267019    -0.35800
O1072       O  0.23169207  0.31962003  0.72556866    -0.40100
C1073       C  0.33025584  0.13571393  0.75109962    -0.13800
C1074       C  0.37069405  0.17424565  0.75330838     0.16600
C1075       C  0.38738974  0.20650431  0.74161039     0.02900
C1076       C  0.36243739  0.20058436  0.72828453    -0.12300
C1077       C  0.32147213  0.16239041  0.72617151    -0.03400
C1078       C  0.30541533  0.12959830  0.73771010     0.02100
C1079       C  0.39344377  0.18144270  0.76832716     0.09000
N1080       N  0.43015005  0.24464328  0.74289592     0.65300
H1081       H  0.37549842  0.22565506  0.71939028     0.18200
N1082       N  0.26260839  0.09160052  0.73660974     0.75800
H1083       H  0.31699571  0.11112693  0.76015305     0.09800
C1084       C  0.39870769  0.21527469  0.77831424     0.03400
C1085       C  0.42141668  0.22211094  0.79220115    -0.05300
C1086       C  0.43818481  0.19499150  0.79678916    -0.23700
C1087       C  0.43185987  0.16035660  0.78686365     0.12700
C1088       C  0.40967808  0.15397977  0.77277747    -0.12800
N1089       N  0.37944595  0.24169830  0.77486762     0.64400
H1090       H  0.42515538  0.24859698  0.79956453     0.12200
N1091       N  0.44908276  0.13241077  0.79055266     0.61000
H1092       H  0.40561353  0.12778562  0.76515871     0.08400
O1093       O  0.22926435  0.09588080  0.73773789    -0.40500
O1094       O  0.25816991  0.05388578  0.73794604    -0.39600
O1095       O  0.46357388  0.24029981  0.74293617    -0.39600
O1096       O  0.43492763  0.28245341  0.74128878    -0.37300
O1097       O  0.48666201  0.14213196  0.78573552    -0.38200
O1098       O  0.42398982  0.09460590  0.79601579    -0.34400
O1099       O  0.33825267  0.22457876  0.77534419    -0.35800
O1100       O  0.40326075  0.28303518  0.77453000    -0.40100
C1101       C  0.59018632  0.03744915  0.37001782    -0.13800
C1102       C  0.56116402  0.00212962  0.36068880     0.16600
C1103       C  0.53201707  0.00728579  0.35091987     0.02900
C1104       C  0.53189762  0.04709307  0.35090090    -0.12300
C1105       C  0.55986256  0.08211786  0.36069667    -0.03400
C1106       C  0.58977671  0.07696399  0.37019028     0.02100
C1107       C  0.56037918  0.95969807  0.36234457     0.09000
N1108       N  0.50052133  0.97170041  0.34166415     0.65300
H1109       H  0.50851850  0.04984457  0.34353339     0.18200
N1110       N  0.61993020  0.11122860  0.38018635     0.75800
H1111       H  0.61298159  0.03400875  0.37749702     0.09800
C1112       C  0.56887679  0.93902000  0.34993899     0.03400
C1113       C  0.56934906  0.89981171  0.35255337    -0.05300
C1114       C  0.56420730  0.88227590  0.36749604    -0.23700
C1115       C  0.55575779  0.90314260  0.37982527     0.12700
C1116       C  0.55326935  0.94095625  0.37710257    -0.12800
N1117       N  0.58125781  0.95945683  0.33506755     0.64400
H1118       H  0.57720371  0.88491576  0.34307297     0.12200
N1119       N  0.55004448  0.88668812  0.39524889     0.61000
H1120       H  0.54663981  0.95645338  0.38671110     0.08400
O1121       O  0.60955831  0.11175837  0.39408604    -0.40500
O1122       O  0.65933152  0.13529956  0.37604586    -0.39600
O1123       O  0.46579244  0.94196905  0.34784522    -0.39600
O1124       O  0.50261915  0.97515799  0.32714753    -0.37300
O1125       O  0.51327973  0.85509093  0.39933402    -0.38200
O1126       O  0.57828268  0.90901525  0.40540121    -0.34400
O1127       O  0.61457236  0.99736179  0.33383274    -0.35800
O1128       O  0.56415974  0.93698855  0.32304554    -0.40100
C1129       C  0.67609396  0.79443770  0.41453435    -0.13800
C1130       C  0.68363332  0.82641075  0.42562966     0.16600
C1131       C  0.66427858  0.85255156  0.42378644     0.02900
C1132       C  0.63839565  0.84710482  0.41082667    -0.12300
C1133       C  0.63142468  0.81599595  0.39931878    -0.03400
C1134       C  0.65037835  0.78905088  0.40140095     0.02100
C1135       C  0.71399896  0.83450377  0.43862607     0.09000
N1136       N  0.67125659  0.88534390  0.43493430     0.65300
H1137       H  0.62418238  0.86798177  0.40975277     0.18200
N1138       N  0.64553133  0.75739304  0.39008841     0.75800
H1139       H  0.69127336  0.77442589  0.41586329     0.09800
C1140       C  0.69985705  0.80937422  0.45224673     0.03400
C1141       C  0.72876242  0.82038176  0.46479855    -0.05300
C1142       C  0.77171715  0.85641392  0.46392817    -0.23700
C1143       C  0.78634301  0.88039618  0.45002339     0.12700
C1144       C  0.75722651  0.86950413  0.43757329    -0.12800
N1145       N  0.65569590  0.77393668  0.45367762     0.64400
H1146       H  0.71712126  0.80190330  0.47545560     0.12200
N1147       N  0.83081069  0.91523225  0.44826983     0.61000
H1148       H  0.76832450  0.88844628  0.42699222     0.08400
O1149       O  0.61967647  0.71703413  0.39259016    -0.40500
O1150       O  0.67249814  0.76893304  0.37907878    -0.39600
O1151       O  0.70173875  0.92449011  0.43296720    -0.39600
O1152       O  0.64321601  0.87666240  0.44540117    -0.37300
O1153       O  0.86181704  0.90753431  0.45021452    -0.38200
O1154       O  0.83867074  0.95089206  0.44205060    -0.34400
O1155       O  0.64606671  0.73563353  0.44970617    -0.35800
O1156       O  0.62556417  0.78170651  0.45723466    -0.40100
C1157       C  0.59302580  0.51789021  0.35621405    -0.13800
C1158       C  0.55434769  0.51837958  0.35304985     0.16600
C1159       C  0.51457871  0.47846398  0.35136221     0.02900
C1160       C  0.51392962  0.43858945  0.35299254    -0.12300
C1161       C  0.55255493  0.43783140  0.35632872    -0.03400
C1162       C  0.59261344  0.47802939  0.35769316     0.02100
C1163       C  0.55634160  0.56086238  0.35083809     0.09000
N1164       N  0.47467888  0.47804063  0.34796941     0.65300
H1165       H  0.48298850  0.40805756  0.35180806     0.18200
N1166       N  0.63341548  0.47902554  0.35960083     0.75800
H1167       H  0.62386736  0.54865388  0.35708969     0.09800
C1168       C  0.55221381  0.58373944  0.36341089     0.03400
C1169       C  0.55256623  0.62320803  0.36091221    -0.05300
C1170       C  0.55681689  0.64012754  0.34594367    -0.23700
C1171       C  0.56333800  0.61830156  0.33344985     0.12700
C1172       C  0.56272126  0.57871475  0.33597400    -0.12800
N1173       N  0.54618943  0.56641710  0.37869525     0.64400
H1174       H  0.54737309  0.63950206  0.37059966     0.12200
N1175       N  0.57170390  0.63657771  0.31823830     0.61000
H1176       H  0.56713265  0.56177409  0.32631674     0.08400
O1177       O  0.65907407  0.50157475  0.37035539    -0.40500
O1178       O  0.64750770  0.46522396  0.34886683    -0.39600
O1179       O  0.45889738  0.46889924  0.33450413    -0.39600
O1180       O  0.45185541  0.47978927  0.35884163    -0.37300
O1181       O  0.60997385  0.66636480  0.31465247    -0.38200
O1182       O  0.54296317  0.61854061  0.30783325    -0.34400
O1183       O  0.57854617  0.58070288  0.38776679    -0.35800
O1184       O  0.50789699  0.54197748  0.38381680    -0.40100
C1185       C  0.41210589  0.65489445  0.30322324    -0.13800
C1186       C  0.42887249  0.68122882  0.29001071     0.16600
C1187       C  0.47170450  0.71805622  0.29037476     0.02900
C1188       C  0.49732026  0.72735241  0.30375808    -0.12300
C1189       C  0.48103119  0.69986832  0.31668759    -0.03400
C1190       C  0.43793914  0.66369560  0.31645425     0.02100
C1191       C  0.40074877  0.66986972  0.27609106     0.09000
N1192       N  0.49064624  0.74432249  0.27690841     0.65300
H1193       H  0.53082602  0.75461062  0.30375066     0.18200
N1194       N  0.42010044  0.63560468  0.32959543     0.75800
H1195       H  0.37888678  0.62711641  0.30321043     0.09800
C1196       C  0.38312171  0.62823711  0.26914556     0.03400
C1197       C  0.35386077  0.61697586  0.25679960    -0.05300
C1198       C  0.34168728  0.64665359  0.25091180    -0.23700
C1199       C  0.35923753  0.68841630  0.25805914     0.12700
C1200       C  0.38861004  0.69958621  0.27045874    -0.12800
N1201       N  0.39530256  0.59725322  0.27433299     0.64400
H1202       H  0.34101732  0.58467607  0.25172972     0.12200
N1203       N  0.34668996  0.71942404  0.25329265     0.61000
H1204       H  0.40109051  0.73126447  0.27600606     0.08400
O1205       O  0.41743203  0.59848741  0.32966491    -0.40500
O1206       O  0.40056874  0.64466635  0.33986602    -0.39600
O1207       O  0.49731727  0.78304165  0.27644695    -0.39600
O1208       O  0.50748325  0.73172394  0.26674641    -0.37300
O1209       O  0.31378549  0.71845349  0.25943410    -0.38200
O1210       O  0.37280389  0.75233706  0.24533069    -0.34400
O1211       O  0.36717284  0.56213785  0.28081079    -0.35800
O1212       O  0.43150411  0.60146979  0.27016573    -0.40100
C1213       C  0.79886136  0.05024513  0.13462940    -0.13800
C1214       C  0.77300355  0.01664830  0.12407437     0.16600
C1215       C  0.72766366  0.99040225  0.12698428     0.02900
C1216       C  0.70937461  0.99728151  0.14025140    -0.12300
C1217       C  0.73499449  0.03006496  0.15114224    -0.03400
C1218       C  0.78039900  0.05709201  0.14804778     0.02100
C1219       C  0.79363621  0.00646932  0.11081760     0.09000
N1220       N  0.69944827  0.95642237  0.11650884     0.65300
H1221       H  0.67445067  0.97625883  0.14196687     0.18200
N1222       N  0.80881211  0.08985453  0.15877345     0.75800
H1223       H  0.83392766  0.07019452  0.13278266     0.09800
C1224       C  0.81905880  0.03795275  0.09948191     0.03400
C1225       C  0.83597193  0.02595441  0.08688185    -0.05300
C1226       C  0.82757888  0.98264717  0.08517570    -0.23700
C1227       C  0.80339758  0.95163295  0.09680724     0.12700
C1228       C  0.78717058  0.96383398  0.10946230    -0.12800
N1229       N  0.82628227  0.08164718  0.10019642     0.64400
H1230       H  0.85439662  0.05026894  0.07809279     0.12200
N1231       N  0.79607519  0.90785424  0.09619737     0.61000
H1232       H  0.76923714  0.93963738  0.11833200     0.08400
O1233       O  0.82157994  0.12975683  0.15609749    -0.40500
O1234       O  0.82805492  0.07999854  0.16895327    -0.39600
O1235       O  0.68353573  0.91667297  0.12035924    -0.39600
O1236       O  0.68380245  0.96588087  0.10499318    -0.37300
O1237       O  0.82318366  0.89932245  0.10254593    -0.38200
O1238       O  0.75908149  0.87670151  0.09203994    -0.34400
O1239       O  0.86355264  0.11289023  0.10405831    -0.35800
O1240       O  0.79874503  0.09003450  0.09412383    -0.40100
C1241       C  0.53579096  0.90147065  0.17440407    -0.13800
C1242       C  0.52215020  0.88797682  0.18957080     0.16600
C1243       C  0.54861160  0.91369835  0.20193923     0.02900
C1244       C  0.58860155  0.95217494  0.19887564    -0.12300
C1245       C  0.60320054  0.96477164  0.18362312    -0.03400
C1246       C  0.57574373  0.93942778  0.17129487     0.02100
C1247       C  0.48123636  0.84558693  0.19192738     0.09000
N1248       N  0.53703930  0.89940015  0.21756286     0.65300
H1249       H  0.60947158  0.97076828  0.20846881     0.18200
N1250       N  0.58755936  0.95189524  0.15553134     0.75800
H1251       H  0.51520270  0.88209801  0.16486203     0.09800
C1252       C  0.44369793  0.84283731  0.19875196     0.03400
C1253       C  0.40499835  0.80196840  0.19975483    -0.05300
C1254       C  0.40230349  0.76397829  0.19336140    -0.23700
C1255       C  0.44040877  0.76686112  0.18686979     0.12700
C1256       C  0.47933082  0.80739385  0.18628202    -0.12800
N1257       N  0.44325632  0.88149430  0.20354865     0.64400
H1258       H  0.37623648  0.80044763  0.20481047     0.12200
N1259       N  0.44046572  0.72891664  0.18105312     0.61000
H1260       H  0.50824055  0.80923372  0.18115457     0.08400
O1261       O  0.58993229  0.98666007  0.15046562    -0.40500
O1262       O  0.58815892  0.92478659  0.14615499    -0.39600
O1263       O  0.53983167  0.86707392  0.22242385    -0.39600
O1264       O  0.53146584  0.92326592  0.22707445    -0.37300
O1265       O  0.44135492  0.72379669  0.16667193    -0.38200
O1266       O  0.44810983  0.70549084  0.19012451    -0.34400
O1267       O  0.44507583  0.90838991  0.19351136    -0.35800
O1268       O  0.43245515  0.88430154  0.21719505    -0.40100
C1269       C  0.59927080  0.15430450  0.27753755    -0.13800
C1270       C  0.64446084  0.17635097  0.27434181     0.16600
C1271       C  0.67334043  0.20962852  0.28459427     0.02900
C1272       C  0.65690348  0.22045494  0.29755155    -0.12300
C1273       C  0.61168253  0.19861766  0.30080838    -0.03400
C1274       C  0.58271056  0.16503425  0.29056074     0.02100
C1275       C  0.66082001  0.16720662  0.25966893     0.09000
N1276       N  0.71975005  0.23218611  0.28219402     0.65300
H1277       H  0.68003060  0.24584997  0.30525202     0.18200
N1278       N  0.53623672  0.14284386  0.29274718     0.75800
H1279       H  0.57646533  0.12954640  0.26959085     0.09800
C1280       C  0.65220440  0.12468914  0.25559209     0.03400
C1281       C  0.66948826  0.11818215  0.24182466    -0.05300
C1282       C  0.69557566  0.15357471  0.23194981    -0.23700
C1283       C  0.70188386  0.19557140  0.23565329     0.12700
C1284       C  0.68480921  0.20192323  0.24936883    -0.12800
N1285       N  0.62811925  0.08829698  0.26573993     0.64400
H1286       H  0.66440702  0.08581129  0.23928393     0.12200
N1287       N  0.72485138  0.23211192  0.22542189     0.61000
H1288       H  0.69003133  0.23434262  0.25193056     0.08400
O1289       O  0.51634964  0.10372364  0.29759994    -0.40500
O1290       O  0.51447355  0.15945635  0.28741989    -0.39600
O1291       O  0.73979213  0.27251799  0.27876782    -0.39600
O1292       O  0.74139384  0.21419874  0.28626619    -0.37300
O1293       O  0.70707845  0.23314721  0.21288811    -0.38200
O1294       O  0.75897456  0.26623173  0.23001914    -0.34400
O1295       O  0.58986046  0.05851101  0.26212250    -0.35800
O1296       O  0.64720394  0.08278722  0.27713188    -0.40100
C1297       C  0.97382724  0.34848298  0.18105805    -0.13800
C1298       C  0.95738237  0.33060912  0.19560400     0.16600
C1299       C  0.98280705  0.35017116  0.20887520     0.02900
C1300       C  0.02362607  0.38854712  0.20748112    -0.12300
C1301       C  0.04012157  0.40717673  0.19290931    -0.03400
C1302       C  0.01513252  0.38631155  0.17958884     0.02100
C1303       C  0.91324361  0.29181860  0.19687449     0.09000
N1304       N  0.96775258  0.33085478  0.22376478     0.65300
H1305       H  0.04266805  0.40368832  0.21782009     0.18200
N1306       N  0.03012218  0.40429390  0.16457189     0.75800
H1307       H  0.95426085  0.33327649  0.17082696     0.09800
C1308       C  0.87710885  0.29626458  0.20093188     0.03400
C1309       C  0.83642082  0.25874345  0.20352813    -0.05300
C1310       C  0.83083883  0.21651719  0.20194456    -0.23700
C1311       C  0.86701544  0.21214818  0.19749221     0.12700
C1312       C  0.90787166  0.24994566  0.19495041    -0.12800
N1313       N  0.88115966  0.33866285  0.20219856     0.64400
H1314       H  0.80878586  0.26269621  0.20651378     0.12200
N1315       N  0.86366291  0.17001950  0.19632416     0.61000
H1316       H  0.93597339  0.24668745  0.19200880     0.08400
O1317       O  0.01382521  0.42484811  0.15801962    -0.40500
O1318       O  0.05149236  0.39130901  0.15669257    -0.39600
O1319       O  0.94836186  0.34436683  0.23245985    -0.39600
O1320       O  0.97228088  0.29902935  0.22798295    -0.37300
O1321       O  0.87951192  0.16136296  0.18471134    -0.38200
O1322       O  0.85348268  0.14559917  0.20807754    -0.34400
O1323       O  0.88358076  0.35981221  0.19010896    -0.35800
O1324       O  0.87433739  0.35119909  0.21500218    -0.40100
C1325       C  0.86558701  0.24028121  0.36327562    -0.13800
C1326       C  0.85786263  0.27255193  0.35701753     0.16600
C1327       C  0.89183794  0.30836210  0.34905837     0.02900
C1328       C  0.93186107  0.31004555  0.34670807    -0.12300
C1329       C  0.93951850  0.27705895  0.35245327    -0.03400
C1330       C  0.90607465  0.24231207  0.36114364     0.02100
C1331       C  0.81373601  0.26769309  0.35828298     0.09000
N1332       N  0.88656449  0.34387809  0.34365650     0.65300
H1333       H  0.95733024  0.33779599  0.34042377     0.18200
N1334       N  0.91176769  0.20781847  0.36727745     0.75800
H1335       H  0.83963058  0.21275340  0.36949560     0.09800
C1336       C  0.78711741  0.25951184  0.34511867     0.03400
C1337       C  0.74695208  0.25820049  0.34643564    -0.05300
C1338       C  0.73194632  0.26371931  0.36077974    -0.23700
C1339       C  0.75820897  0.27103650  0.37401379     0.12700
C1340       C  0.79882579  0.27300553  0.37266028    -0.12800
N1341       N  0.79959787  0.25066420  0.33045835     0.64400
H1342       H  0.72681858  0.25172536  0.33620721     0.12200
N1343       N  0.74534789  0.27904013  0.38871086     0.61000
H1344       H  0.81929995  0.27975940  0.38280358     0.08400
O1345       O  0.90051123  0.17374170  0.35933304    -0.40500
O1346       O  0.92038383  0.20792093  0.38142797    -0.39600
O1347       O  0.88539563  0.37015692  0.35327712    -0.39600
O1348       O  0.89151636  0.35381253  0.32951092    -0.37300
O1349       O  0.75550447  0.31773514  0.39235066    -0.38200
O1350       O  0.73212062  0.24971872  0.39899989    -0.34400
O1351       O  0.79611471  0.21366518  0.32810632    -0.35800
O1352       O  0.80472189  0.27533199  0.31911550    -0.40100
C1353       C  0.14540591  0.40274725  0.26593561    -0.13800
C1354       C  0.11805878  0.40856250  0.27622101     0.16600
C1355       C  0.10938705  0.44303511  0.27368253     0.02900
C1356       C  0.12679823  0.47000397  0.26072243    -0.12300
C1357       C  0.15369138  0.46399887  0.25024969    -0.03400
C1358       C  0.16307606  0.42999694  0.25296134     0.02100
C1359       C  0.09863162  0.37855163  0.28956485     0.09000
N1360       N  0.08467401  0.45236740  0.28455221     0.65300
H1361       H  0.11997096  0.49650927  0.25903250     0.18200
N1362       N  0.18817163  0.42104282  0.24217741     0.75800
H1363       H  0.15205441  0.37618243  0.26777047     0.09800
C1364       C  0.05278846  0.35173297  0.29116069     0.03400
C1365       C  0.03538603  0.32855918  0.30490172    -0.05300
C1366       C  0.06283230  0.32952124  0.31688031    -0.23700
C1367       C  0.10871168  0.35377525  0.31473822     0.12700
C1368       C  0.12621126  0.37855475  0.30124352    -0.12800
N1369       N  0.02371708  0.34599621  0.27865887     0.64400
H1370       H  0.00003541  0.30861935  0.30603107     0.12200
N1371       N  0.13801804  0.35400151  0.32615074     0.61000
H1372       H  0.16152018  0.39853109  0.29999260     0.08400
O1373       O  0.22606991  0.42858458  0.24574348    -0.40500
O1374       O  0.17169988  0.40387008  0.22930366    -0.39600
O1375       O  0.10242778  0.47119885  0.29709114    -0.39600
O1376       O  0.04932848  0.45022383  0.28037559    -0.37300
O1377       O  0.15548879  0.33075231  0.32405761    -0.38200
O1378       O  0.15322961  0.38356592  0.33636252    -0.34400
O1379       O  0.02580568  0.32793306  0.26636582    -0.35800
O1380       O  0.99086202  0.35052329  0.28095062    -0.40100
C1381       C  0.99706047  0.09332674  0.40992735    -0.13800
C1382       C  0.98604177  0.11227775  0.42201847     0.16600
C1383       C  0.98938996  0.15355572  0.41989263     0.02900
C1384       C  0.00487285  0.17577982  0.40581792    -0.12300
C1385       C  0.01840310  0.15796017  0.39402804    -0.03400
C1386       C  0.01318097  0.11578692  0.39598363     0.02100
C1387       C  0.97255420  0.08894100  0.43692891     0.09000
N1388       N  0.98031748  0.17461547  0.43228029     0.65300
H1389       H  0.00937456  0.20843410  0.40453090     0.18200
N1390       N  0.02390921  0.09531052  0.38386531     0.75800
H1391       H  0.99374757  0.06121186  0.41142954     0.09800
C1392       C  0.92813166  0.06401654  0.44111595     0.03400
C1393       C  0.91653432  0.04123922  0.45517110    -0.05300
C1394       C  0.94858102  0.04132341  0.46494820    -0.23700
C1395       C  0.99333274  0.06714321  0.46071907     0.12700
C1396       C  0.00478952  0.09059952  0.44681319    -0.12800
N1397       N  0.89445583  0.05940453  0.43075651     0.64400
H1398       H  0.88210792  0.02216081  0.45817013     0.12200
N1399       N  0.02768367  0.07080405  0.47051766     0.61000
H1400       H  0.03911605  0.11007161  0.44364809     0.08400
O1401       O  0.99701730  0.07665921  0.37296682    -0.40500
O1402       O  0.05579006  0.08883588  0.38549819    -0.39600
O1403       O  0.00540259  0.18807009  0.44388662    -0.39600
O1404       O  0.95168863  0.18577266  0.43059804    -0.37300
O1405       O  0.04674333  0.04959474  0.46731071    -0.38200
O1406       O  0.04422740  0.10100251  0.48048653    -0.34400
O1407       O  0.88159618  0.03128992  0.42006062    -0.35800
O1408       O  0.87820762  0.08401299  0.43205425    -0.40100
C1409       C  0.29503422  0.22822460  0.37313040    -0.13800
C1410       C  0.27699223  0.22988263  0.35888884     0.16600
C1411       C  0.30262918  0.23971418  0.34545678     0.02900
C1412       C  0.34551350  0.24707166  0.34639481    -0.12300
C1413       C  0.36360787  0.24483535  0.36062277    -0.03400
C1414       C  0.33800613  0.23597254  0.37415511     0.02100
C1415       C  0.23279460  0.22513137  0.35861387     0.09000
N1416       N  0.28504938  0.24112034  0.33073443     0.65300
H1417       H  0.36426798  0.25339543  0.33585489     0.18200
N1418       N  0.35580212  0.23694738  0.38910321     0.75800
H1419       H  0.27602876  0.22218088  0.38359916     0.09800
C1420       C  0.19537025  0.18551204  0.36294711     0.03400
C1421       C  0.15516501  0.18386685  0.36479250    -0.05300
C1422       C  0.15135637  0.22145879  0.36264664    -0.23700
C1423       C  0.18905412  0.26133104  0.35815998     0.12700
C1424       C  0.22903995  0.26234876  0.35587901    -0.12800
N1425       N  0.19788238  0.14677966  0.36566422     0.64400
H1426       H  0.12677561  0.15294053  0.36812518     0.12200
N1427       N  0.18871264  0.30184938  0.35730777     0.61000
H1428       H  0.25820250  0.29322785  0.35302407     0.08400
O1429       O  0.34202763  0.20174102  0.39665169    -0.40500
O1430       O  0.37942052  0.27336501  0.39574399    -0.39600
O1431       O  0.29951958  0.27735533  0.32380162    -0.39600
O1432       O  0.26004434  0.20574544  0.32371508    -0.37300
O1433       O  0.17537418  0.31418947  0.36870496    -0.38200
O1434       O  0.21048768  0.32939712  0.34690456    -0.34400
O1435       O  0.19672591  0.13361814  0.37930483    -0.35800
O1436       O  0.19421480  0.12219656  0.35448993    -0.40100
C1437       C  0.65541403  0.93956611  0.01594808    -0.13800
C1438       C  0.62231187  0.90641584  0.02494562     0.16600
C1439       C  0.63088357  0.87671115  0.03292838     0.02900
C1440       C  0.67269357  0.88154123  0.03229232    -0.12300
C1441       C  0.70659791  0.91531177  0.02356618    -0.03400
C1442       C  0.69728294  0.94415404  0.01511214     0.02100
C1443       C  0.57957325  0.90433068  0.02655572     0.09000
N1444       N  0.59707561  0.84077603  0.04142266     0.65300
H1445       H  0.67833824  0.85816659  0.03855982     0.18200
N1446       N  0.73009384  0.97900418  0.00598759     0.75800
H1447       H  0.64892792  0.96249900  0.00976642     0.09800
C1448       C  0.56879246  0.91795046  0.04031204     0.03400
C1449       C  0.52693430  0.91240056  0.04213147    -0.05300
C1450       C  0.49568268  0.89454320  0.03025236    -0.23700
C1451       C  0.50694720  0.88233078  0.01625051     0.12700
C1452       C  0.54871434  0.88706270  0.01453762    -0.12800
N1453       N  0.60047302  0.93857964  0.05235499     0.64400
H1454       H  0.51895563  0.92264061  0.05284890     0.12200
N1455       N  0.47556956  0.86269242  0.00408139     0.61000
H1456       H  0.55677225  0.87635593  0.00394677     0.08400
O1457       O  0.73134249  0.97379755  0.99162639    -0.40500
O1458       O  0.75253566  0.01692022  0.01173375    -0.39600
O1459       O  0.56980397  0.80644486  0.03432769    -0.39600
O1460       O  0.59985885  0.83977402  0.05592502    -0.37300
O1461       O  0.47666200  0.88585088  0.99277373    -0.38200
O1462       O  0.45226541  0.82137049  0.00329823    -0.34400
O1463       O  0.62829609  0.97905748  0.05138439    -0.35800
O1464       O  0.59504485  0.91912533  0.06510239    -0.40100
C1465       C  0.27818747  0.76220672  0.11406357    -0.13800
C1466       C  0.31054509  0.76088392  0.10503287     0.16600
C1467       C  0.32808625  0.73467008  0.10992547     0.02900
C1468       C  0.31477553  0.71216534  0.12390790    -0.12300
C1469       C  0.28169168  0.71221408  0.13283078    -0.03400
C1470       C  0.26345164  0.73798573  0.12785028     0.02100
C1471       C  0.32988922  0.79061026  0.09155472     0.09000
N1472       N  0.35858457  0.72953648  0.10053822     0.65300
H1473       H  0.32973395  0.69341777  0.12759878     0.18200
N1474       N  0.23235206  0.74239471  0.13711256     0.75800
H1475       H  0.26550157  0.78337535  0.11071169     0.09800
C1476       C  0.30432622  0.79086551  0.07905711     0.03400
C1477       C  0.32497924  0.81727546  0.06611286    -0.05300
C1478       C  0.37099328  0.84303462  0.06531338    -0.23700
C1479       C  0.39621776  0.84454737  0.07825002     0.12700
C1480       C  0.37551939  0.81876635  0.09118284    -0.12800
N1481       N  0.25778320  0.76239129  0.07888932     0.64400
H1482       H  0.30505472  0.81560220  0.05630703     0.12200
N1483       N  0.44294214  0.87212055  0.07849024     0.61000
H1484       H  0.39542663  0.82024261  0.10097222     0.08400
O1485       O  0.19399599  0.72869309  0.13208643    -0.40500
O1486       O  0.24521085  0.76621702  0.14903436    -0.39600
O1487       O  0.39536063  0.73833695  0.10598652    -0.39600
O1488       O  0.34642930  0.71057696  0.08762341    -0.37300
O1489       O  0.45979362  0.91271539  0.08110934    -0.38200
O1490       O  0.46701510  0.85507035  0.07843035    -0.34400
O1491       O  0.23292278  0.77845547  0.07971727    -0.35800
O1492       O  0.24179318  0.72235031  0.07548070    -0.40100
C1493       C  0.44607378  0.09525340  0.94062439    -0.13800
C1494       C  0.46214915  0.06631442  0.94233153     0.16600
C1495       C  0.49462010  0.06941476  0.93210903     0.02900
C1496       C  0.50940347  0.10052875  0.92015322    -0.12300
C1497       C  0.49183909  0.12835543  0.91800773    -0.03400
C1498       C  0.46049952  0.12599638  0.92865609     0.02100
C1499       C  0.44207983  0.03199639  0.95439312     0.09000
N1500       N  0.51087030  0.03958041  0.93307714     0.65300
H1501       H  0.53337104  0.10149791  0.91210598     0.18200
N1502       N  0.44318023  0.15481545  0.92762975     0.75800
H1503       H  0.42154974  0.09353943  0.94857832     0.09800
C1504       C  0.46544844  0.03178142  0.96759573     0.03400
C1505       C  0.44289023  0.00275801  0.97976134    -0.05300
C1506       C  0.39710512  0.97485215  0.97917638    -0.23700
C1507       C  0.37434951  0.97349227  0.96559922     0.12700
C1508       C  0.39693498  0.00185213  0.95337180    -0.12800
N1509       N  0.51100855  0.06341936  0.96946423     0.64400
H1510       H  0.46078145  0.00439205  0.99016695     0.12200
N1511       N  0.32832242  0.94343078  0.96403437     0.61000
H1512       H  0.37882792  0.00136697  0.94316842     0.08400
O1513       O  0.46156539  0.19053316  0.93503219    -0.40500
O1514       O  0.40500308  0.14042667  0.92231210    -0.39600
O1515       O  0.48857808  0.00163122  0.92734194    -0.39600
O1516       O  0.55078008  0.05412308  0.93629178    -0.37300
O1517       O  0.31517407  0.90439143  0.95988296    -0.38200
O1518       O  0.30198138  0.95781098  0.96378652    -0.34400
O1519       O  0.52241384  0.10275074  0.97260391    -0.35800
O1520       O  0.53832616  0.05054788  0.97115853    -0.40100
C1521       C  0.13440471  0.93372125  0.01054691    -0.13800
C1522       C  0.15125215  0.92477260  0.02384856     0.16600
C1523       C  0.12708398  0.91505654  0.03773093     0.02900
C1524       C  0.08671141  0.91413612  0.03792285    -0.12300
C1525       C  0.07046321  0.92435514  0.02465374    -0.03400
C1526       C  0.09499928  0.93410138  0.01080979     0.02100
C1527       C  0.19461898  0.92721469  0.02260562     0.09000
N1528       N  0.14416833  0.90882797  0.05190244     0.65300
H1529       H  0.06896081  0.90727533  0.04871693     0.18200
N1530       N  0.08049792  0.94425285  0.99679028     0.75800
H1531       H  0.15229565  0.94084611  0.99976512     0.09800
C1532       C  0.20076060  0.89148704  0.02624992     0.03400
C1533       C  0.24135838  0.89448491  0.02317456    -0.05300
C1534       C  0.27540786  0.93160939  0.01582034    -0.23700
C1535       C  0.26949905  0.96760856  0.01258201     0.12700
C1536       C  0.22973854  0.96531507  0.01616752    -0.12800
N1537       N  0.16529138  0.85074943  0.03182400     0.64400
H1538       H  0.24526053  0.86643935  0.02562617     0.12200
N1539       N  0.30363303  0.00697366  0.00573354     0.61000
H1540       H  0.22578426  0.99320940  0.01346070     0.08400
O1541       O  0.05803911  0.91394030  0.98729154    -0.40500
O1542       O  0.09755650  0.98380381  0.99253693    -0.39600
O1543       O  0.17820617  0.94058057  0.05772840    -0.39600
O1544       O  0.12091733  0.87508403  0.05998908    -0.37300
O1545       O  0.30226405  0.01344333  0.99146445    -0.38200
O1546       O  0.32925954  0.03861621  0.01428347    -0.34400
O1547       O  0.13206518  0.82860913  0.02338253    -0.35800
O1548       O  0.17049652  0.83328272  0.04376892    -0.40100
C1549       C  0.31444288  0.46735311  0.58564410    -0.13800
C1550       C  0.33624666  0.50898016  0.59259414     0.16600
C1551       C  0.37670398  0.54153297  0.58653126     0.02900
C1552       C  0.39457225  0.53210539  0.57378140    -0.12300
C1553       C  0.37333584  0.49030058  0.56680179    -0.03400
C1554       C  0.33248250  0.45773090  0.57285733     0.02100
C1555       C  0.31822306  0.51710555  0.60681859     0.09000
N1556       N  0.40024928  0.58443650  0.59323741     0.65300
H1557       H  0.42556006  0.55812082  0.56937540     0.18200
N1558       N  0.31002513  0.41405370  0.56686040     0.75800
H1559       H  0.28383743  0.44168066  0.59046574     0.09800
C1560       C  0.27507892  0.50984935  0.60741666     0.03400
C1561       C  0.25944258  0.51794670  0.62111968    -0.05300
C1562       C  0.28659166  0.53429269  0.63415271    -0.23700
C1563       C  0.32927375  0.54047354  0.63370393     0.12700
C1564       C  0.34452302  0.53142690  0.62013371    -0.12800
N1565       N  0.24764792  0.49652343  0.59401262     0.64400
H1566       H  0.22666682  0.51341799  0.62135757     0.12200
N1567       N  0.35693836  0.55461341  0.64706624     0.61000
H1568       H  0.37702429  0.53531189  0.62002799     0.08400
O1569       O  0.28232573  0.40442284  0.55615165    -0.40500
O1570       O  0.31015955  0.38365251  0.57454541    -0.39600
O1571       O  0.43623636  0.59651156  0.60005396    -0.39600
O1572       O  0.38890472  0.61237936  0.59019669    -0.37300
O1573       O  0.39178815  0.59156502  0.64707244    -0.38200
O1574       O  0.34997287  0.52775876  0.65785878    -0.34400
O1575       O  0.21251177  0.45982078  0.59386758    -0.35800
O1576       O  0.25466719  0.52414937  0.58350054    -0.40100
C1577       C  0.66596367  0.65833442  0.52161730    -0.13800
C1578       C  0.62748467  0.66009177  0.52384731     0.16600
C1579       C  0.63006641  0.70112630  0.52530393     0.02900
C1580       C  0.67093536  0.73962616  0.52524122    -0.12300
C1581       C  0.70966726  0.73808115  0.52350493    -0.03400
C1582       C  0.70707457  0.69703710  0.52139845     0.02100
C1583       C  0.58599641  0.61939176  0.52735044     0.09000
N1584       N  0.59129164  0.70399311  0.52707647     0.65300
H1585       H  0.67239895  0.77097285  0.52653760     0.18200
N1586       N  0.74587463  0.69389764  0.52025648     0.75800
H1587       H  0.66422954  0.62676521  0.52085248     0.09800
C1588       C  0.56070723  0.58860330  0.51592080     0.03400
C1589       C  0.52073874  0.55130035  0.51992287    -0.05300
C1590       C  0.50552607  0.54429397  0.53525541    -0.23700
C1591       C  0.53227772  0.57449963  0.54677969     0.12700
C1592       C  0.57180330  0.61173006  0.54268542    -0.12800
N1593       N  0.57414049  0.59593502  0.50013824     0.64400
H1594       H  0.50074510  0.52882637  0.51088196     0.12200
N1595       N  0.52035999  0.56755538  0.56274417     0.61000
H1596       H  0.59180567  0.63487255  0.55158225     0.08400
O1597       O  0.76522152  0.69285802  0.53238655    -0.40500
O1598       O  0.75621144  0.68453575  0.50747166    -0.39600
O1599       O  0.58261822  0.71437266  0.53998084    -0.39600
O1600       O  0.56976408  0.70306687  0.51528551    -0.37300
O1601       O  0.52298682  0.53804296  0.57013645    -0.38200
O1602       O  0.51496660  0.59553507  0.57000807    -0.34400
O1603       O  0.58982858  0.57421560  0.49410525    -0.35800
O1604       O  0.56381307  0.61853201  0.49166841    -0.40100
C1605       C  0.10331493  0.18498444  0.52887815    -0.13800
C1606       C  0.13893232  0.18796557  0.52070746     0.16600
C1607       C  0.13532836  0.15016926  0.51378787     0.02900
C1608       C  0.09602239  0.11029372  0.51484857    -0.12300
C1609       C  0.06026305  0.10652918  0.52326263    -0.03400
C1610       C  0.06404260  0.14468058  0.53022725     0.02100
C1611       C  0.18004541  0.23049325  0.51953164     0.09000
N1612       N  0.17201455  0.15128762  0.50630010     0.65300
H1613       H  0.09397572  0.08185774  0.50928403     0.18200
N1614       N  0.02802951  0.14357971  0.53818133     0.75800
H1615       H  0.10594380  0.21415003  0.53412658     0.09800
C1616       C  0.19331336  0.25320487  0.50539363     0.03400
C1617       C  0.23557217  0.28954792  0.50397267    -0.05300
C1618       C  0.26458746  0.30411414  0.51657174    -0.23700
C1619       C  0.25057231  0.28251751  0.53089330     0.12700
C1620       C  0.20828268  0.24603307  0.53229611    -0.12800
N1621       N  0.16414677  0.23969839  0.49244904     0.64400
H1622       H  0.24595071  0.30624882  0.49294544     0.12200
N1623       N  0.28005384  0.29495182  0.54370614     0.61000
H1624       H  0.19833640  0.22823359  0.54312971     0.08400
O1625       O  0.02803562  0.14450054  0.55274112    -0.40500
O1626       O  0.00074628  0.14976577  0.53076665    -0.39600
O1627       O  0.20265746  0.15301199  0.51439258    -0.39600
O1628       O  0.16930950  0.14106904  0.49222046    -0.37300
O1629       O  0.31290615  0.28970554  0.54312175    -0.38200
O1630       O  0.27110328  0.30740719  0.55611311    -0.34400
O1631       O  0.13558415  0.25119600  0.49163854    -0.35800
O1632       O  0.17201910  0.22364090  0.48070762    -0.40100
C1633       C  0.46103014  0.36763494  0.47267761    -0.13800
C1634       C  0.43503792  0.34492143  0.45991027     0.16600
C1635       C  0.39011197  0.33120730  0.45986514     0.02900
C1636       C  0.37159689  0.33990989  0.47261300    -0.12300
C1637       C  0.39708628  0.36170301  0.48565659    -0.03400
C1638       C  0.44240449  0.37594135  0.48558891     0.02100
C1639       C  0.45488177  0.33514840  0.44669821     0.09000
N1640       N  0.36277375  0.30769977  0.44703799     0.65300
H1641       H  0.33681570  0.32886288  0.47237224     0.18200
N1642       N  0.46929166  0.39628010  0.49883284     0.75800
H1643       H  0.49565389  0.37799211  0.47274868     0.09800
C1644       C  0.47385499  0.36518880  0.43446973     0.03400
C1645       C  0.49031796  0.35405660  0.42163172    -0.05300
C1646       C  0.48778268  0.31298730  0.42081276    -0.23700
C1647       C  0.46978651  0.28344284  0.43332758     0.12700
C1648       C  0.45330539  0.29465757  0.44611603    -0.12800
N1649       N  0.47552404  0.40658340  0.43483632     0.64400
H1650       H  0.50401017  0.37702549  0.41210581     0.12200
N1651       N  0.46969799  0.24278115  0.43347248     0.61000
H1652       H  0.43916431  0.27169531  0.45562780     0.08400
O1653       O  0.49593495  0.43715776  0.49884278    -0.40500
O1654       O  0.47123962  0.37268005  0.50943015    -0.39600
O1655       O  0.34656751  0.26660952  0.44617663    -0.39600
O1656       O  0.34889543  0.32648154  0.43814833    -0.37300
O1657       O  0.50321517  0.24205047  0.43818505    -0.38200
O1658       O  0.43417071  0.20706775  0.43153278    -0.34400
O1659       O  0.50615449  0.43851774  0.44200013    -0.35800
O1660       O  0.44366449  0.40966418  0.42969134    -0.40100
C1661       C  0.63505400  0.46272827  0.74876477    -0.13800
C1662       C  0.66174223  0.45810076  0.75980608     0.16600
C1663       C  0.70748378  0.48030389  0.75750058     0.02900
C1664       C  0.72541370  0.50386471  0.74391420    -0.12300
C1665       C  0.69881722  0.50672768  0.73239335    -0.03400
C1666       C  0.65321230  0.48712649  0.73516863     0.02100
C1667       C  0.64182754  0.42622851  0.77272627     0.09000
N1668       N  0.73621898  0.47882921  0.76885786     0.65300
H1669       H  0.76064987  0.51982662  0.74236928     0.18200
N1670       N  0.62456374  0.48933185  0.72397038     0.75800
H1671       H  0.59978721  0.44564476  0.75034125     0.09800
C1672       C  0.61404032  0.42911200  0.78374485     0.03400
C1673       C  0.59803681  0.39930378  0.79610885    -0.05300
C1674       C  0.60956542  0.36664940  0.79782957    -0.23700
C1675       C  0.63576104  0.36265581  0.78638053     0.12700
C1676       C  0.65133433  0.39211040  0.77398497    -0.12800
N1677       N  0.60357785  0.46335918  0.78298223     0.64400
H1678       H  0.57792314  0.40284112  0.80474748     0.12200
N1679       N  0.64572804  0.32804392  0.78687832     0.61000
H1680       H  0.67117254  0.38834877  0.76525308     0.08400
O1681       O  0.61062415  0.51571221  0.72591801    -0.40500
O1682       O  0.60790855  0.46046807  0.71354837    -0.39600
O1683       O  0.75683567  0.45897654  0.76594921    -0.39600
O1684       O  0.74634529  0.50313185  0.78062537    -0.37300
O1685       O  0.61954775  0.29148914  0.78076518    -0.38200
O1686       O  0.68395192  0.33666047  0.79048634    -0.34400
O1687       O  0.56521480  0.45421357  0.77933902    -0.35800
O1688       O  0.62980224  0.50056796  0.78864831    -0.40100
C1689       C  0.87430244  0.52873290  0.70041619    -0.13800
C1690       C  0.90802579  0.56761552  0.69394618     0.16600
C1691       C  0.89830281  0.59924435  0.68820023     0.02900
C1692       C  0.85571107  0.59247959  0.68967136    -0.12300
C1693       C  0.82248911  0.55460566  0.69693988    -0.03400
C1694       C  0.83185631  0.52191808  0.70193045     0.02100
C1695       C  0.95297222  0.57417243  0.69331999     0.09000
N1696       N  0.93190792  0.63945429  0.68165520     0.65300
H1697       H  0.84924544  0.61797770  0.68581066     0.18200
N1698       N  0.79840692  0.48116006  0.70824446     0.75800
H1699       H  0.88101442  0.50342920  0.70432613     0.09800
C1700       C  0.97436727  0.57295577  0.70690442     0.03400
C1701       C  0.01520288  0.57565690  0.70603066    -0.05300
C1702       C  0.03572606  0.57969867  0.69176186    -0.23700
C1703       C  0.01426725  0.58087543  0.67810443     0.12700
C1704       C  0.97334039  0.57845002  0.67901657    -0.12800
N1705       N  0.95528003  0.56974626  0.72173256     0.64400
H1706       H  0.03120336  0.57513305  0.71666246     0.12200
N1707       N  0.03213131  0.58178191  0.66322185     0.61000
H1708       H  0.95658650  0.57815396  0.66847373     0.08400
O1709       O  0.79936587  0.47290031  0.72237415    -0.40500
O1710       O  0.77221797  0.45097369  0.69930826    -0.39600
O1711       O  0.93142615  0.64652450  0.66739341    -0.39600
O1712       O  0.95827338  0.67015060  0.69038938    -0.37300
O1713       O  0.03043780  0.54747285  0.65802894    -0.38200
O1714       O  0.04168602  0.61359930  0.65424476    -0.34400
O1715       O  0.94099380  0.53481101  0.72948436    -0.35800
O1716       O  0.95933148  0.60384706  0.72807141    -0.40100
C1717       C  0.53568537  0.58904605  0.67150188    -0.13800
C1718       C  0.52039698  0.58528672  0.68669986     0.16600
C1719       C  0.54467334  0.58057549  0.69880155     0.02900
C1720       C  0.58461057  0.58244184  0.69561302    -0.12300
C1721       C  0.60130832  0.58939598  0.68051854    -0.03400
C1722       C  0.57571443  0.59145233  0.66832735     0.02100
C1723       C  0.47920771  0.58645600  0.68945241     0.09000
N1724       N  0.53043740  0.57603910  0.71446875     0.65300
H1725       H  0.60365223  0.58063142  0.70512591     0.18200
N1726       N  0.58940953  0.59508280  0.65260318     0.75800
H1727       H  0.51638406  0.59024034  0.66196267     0.09800
C1728       C  0.47313209  0.61956019  0.68271802     0.03400
C1729       C  0.43284674  0.61784985  0.68407079    -0.05300
C1730       C  0.39791746  0.58443266  0.69245998    -0.23700
C1731       C  0.40422225  0.55169836  0.69955004     0.12700
C1732       C  0.44443877  0.55279489  0.69786075    -0.12800
N1733       N  0.50795449  0.65583054  0.67467724     0.64400
H1734       H  0.42921958  0.64347492  0.67859559     0.12200
N1735       N  0.36972009  0.51603843  0.70789901     0.61000
H1736       H  0.44797199  0.52642743  0.70277378     0.08400
O1737       O  0.60014446  0.62985903  0.64513438    -0.40500
O1738       O  0.58405350  0.56138469  0.64554929    -0.39600
O1739       O  0.51884355  0.54052727  0.72157203    -0.39600
O1740       O  0.53706252  0.60959948  0.72193030    -0.37300
O1741       O  0.34297907  0.48144403  0.70081558    -0.38200
O1742       O  0.37094101  0.51589754  0.72245741    -0.34400
O1743       O  0.50383023  0.66121693  0.66049383    -0.35800
O1744       O  0.53903291  0.68624483  0.68222360    -0.40100
C1745       C  0.76847983  0.73755327  0.59873982    -0.13800
C1746       C  0.79768279  0.74747808  0.61116468     0.16600
C1747       C  0.84175870  0.78110701  0.60937126     0.02900
C1748       C  0.85509562  0.80562007  0.59565446    -0.12300
C1749       C  0.82504934  0.79751403  0.58364673    -0.03400
C1750       C  0.78158470  0.76231190  0.58513527     0.02100
C1751       C  0.78043058  0.72314909  0.62593133     0.09000
N1752       N  0.87277415  0.79231388  0.62162665     0.65300
H1753       H  0.88873670  0.83229680  0.59464891     0.18200
N1754       N  0.75064744  0.75054297  0.57280299     0.75800
H1755       H  0.73494084  0.71065151  0.59969897     0.09800
C1756       C  0.74336464  0.72107042  0.63288857     0.03400
C1757       C  0.72311603  0.69305416  0.64537937    -0.05300
C1758       C  0.73934323  0.66704108  0.65158446    -0.23700
C1759       C  0.77842619  0.67140086  0.64529065     0.12700
C1760       C  0.79819989  0.69886117  0.63242688    -0.12800
N1761       N  0.72583741  0.74743434  0.62736779     0.64400
H1762       H  0.69428193  0.69190561  0.65025004     0.12200
N1763       N  0.79777853  0.64738696  0.65144100     0.61000
H1764       H  0.82668713  0.70007837  0.62720855     0.08400
O1765       O  0.72205430  0.76202978  0.57333011    -0.40500
O1766       O  0.74649352  0.72190253  0.56314049    -0.39600
O1767       O  0.90150546  0.78106118  0.62078089    -0.39600
O1768       O  0.87712102  0.82063622  0.63146372    -0.37300
O1769       O  0.78983165  0.61175358  0.64519856    -0.38200
O1770       O  0.82852373  0.66548283  0.66116585    -0.34400
O1771       O  0.68782856  0.72927381  0.62155988    -0.35800
O1772       O  0.74555676  0.78803890  0.63033417    -0.40100
C1773       C  0.30019907  0.01773295  0.87208223    -0.13800
C1774       C  0.29762515  0.98260206  0.86362132     0.16600
C1775       C  0.33075662  0.99062018  0.85292661     0.02900
C1776       C  0.36659611  0.03316177  0.85124998    -0.12300
C1777       C  0.37047090  0.06826214  0.86022871    -0.03400
C1778       C  0.33586613  0.06032579  0.87041414     0.02100
C1779       C  0.25813130  0.93873267  0.86534978     0.09000
N1780       N  0.32917067  0.95562557  0.84407538     0.65300
H1781       H  0.39211767  0.03831486  0.84316649     0.18200
N1782       N  0.33531719  0.09522561  0.87865277     0.75800
H1783       H  0.27371777  0.01220169  0.87979575     0.09800
C1784       C  0.24551877  0.91875798  0.87997314     0.03400
C1785       C  0.20378126  0.88223164  0.88200012    -0.05300
C1786       C  0.17434506  0.86467864  0.86959370    -0.23700
C1787       C  0.18774319  0.88310625  0.85474981     0.12700
C1788       C  0.22959160  0.91992512  0.85274436    -0.12800
N1789       N  0.27460996  0.93573075  0.89290596     0.64400
H1790       H  0.19406301  0.86785387  0.89340731     0.12200
N1791       N  0.15782971  0.86786793  0.84200963     0.61000
H1792       H  0.23862495  0.93570634  0.84153648     0.08400
O1793       O  0.33968791  0.09747675  0.89313997    -0.40500
O1794       O  0.32315920  0.11903556  0.87184376    -0.39600
O1795       O  0.32287783  0.95413488  0.82969082    -0.39600
O1796       O  0.34086369  0.93052995  0.85015779    -0.37300
O1797       O  0.12794849  0.87758386  0.84127998    -0.38200
O1798       O  0.16596510  0.85183380  0.83032478    -0.34400
O1799       O  0.26550131  0.95278869  0.90404800    -0.35800
O1800       O  0.30509213  0.92706914  0.89433585    -0.40100
C1801       C  0.98374108  0.79202734  0.91951686    -0.13800
C1802       C  0.01038525  0.82848505  0.92888371     0.16600
C1803       C  0.05571993  0.85326008  0.92582736     0.02900
C1804       C  0.07293755  0.84322760  0.91297283    -0.12300
C1805       C  0.04635048  0.80770202  0.90312956    -0.03400
C1806       C  0.00130255  0.78112216  0.90683569     0.02100
C1807       C  0.99073384  0.84041708  0.94183386     0.09000
N1808       N  0.08507703  0.88753309  0.93604995     0.65300
H1809       H  0.10788140  0.86331162  0.91090757     0.18200
N1810       N  0.97289812  0.74299411  0.89797218     0.75800
H1811       H  0.94899721  0.77208818  0.92200293     0.09800
C1812       C  0.99380190  0.88197272  0.94255301     0.03400
C1813       C  0.97874684  0.89371273  0.95566831    -0.05300
C1814       C  0.95877776  0.86404740  0.96791037    -0.23700
C1815       C  0.95457328  0.82204848  0.96693832     0.12700
C1816       C  0.97066538  0.81070045  0.95401083    -0.12800
N1817       N  0.00992723  0.91158653  0.92972127     0.64400
H1818       H  0.98118614  0.92565200  0.95603528     0.12200
N1819       N  0.93562855  0.79110539  0.97923460     0.61000
H1820       H  0.96840714  0.77884543  0.95364507     0.08400
O1821       O  0.94779367  0.74491973  0.88799443    -0.40500
O1822       O  0.96717659  0.70602270  0.90203135    -0.39600
O1823       O  0.08920794  0.87824541  0.94980118    -0.39600
O1824       O  0.11232890  0.92486520  0.93070506    -0.37300
O1825       O  0.89946715  0.75623113  0.97706809    -0.38200
O1826       O  0.95901074  0.79395149  0.99071936    -0.34400
O1827       O  0.98855541  0.90102173  0.91722677    -0.35800
O1828       O  0.04026817  0.95080819  0.93170177    -0.40100
C1829       C  0.86464418  0.56383455  0.84262649    -0.13800
C1830       C  0.85204148  0.54966890  0.85782731     0.16600
C1831       C  0.87907868  0.57514122  0.87014257     0.02900
C1832       C  0.91914313  0.61328287  0.86695034    -0.12300
C1833       C  0.93311328  0.62573131  0.85165469    -0.03400
C1834       C  0.90468157  0.60147114  0.83942440     0.02100
C1835       C  0.81181510  0.50674938  0.86012484     0.09000
N1836       N  0.86821418  0.56094439  0.88580487     0.65300
H1837       H  0.94076819  0.63135776  0.87645768     0.18200
N1838       N  0.91588997  0.61454709  0.82368302     0.75800
H1839       H  0.84346060  0.54493517  0.83312842     0.09800
C1840       C  0.77411802  0.50285106  0.86719070     0.03400
C1841       C  0.73521523  0.46211553  0.86724828    -0.05300
C1842       C  0.73288790  0.42507241  0.86010866    -0.23700
C1843       C  0.77135505  0.42884114  0.85361976     0.12700
C1844       C  0.81023654  0.46945853  0.85368887    -0.12800
N1845       N  0.77386738  0.54036812  0.87336690     0.64400
H1846       H  0.70612763  0.46009677  0.87227419     0.12200
N1847       N  0.77175631  0.39183078  0.84704489     0.61000
H1848       H  0.83932855  0.47217838  0.84837779     0.08400
O1849       O  0.91422642  0.64731724  0.81862882    -0.40500
O1850       O  0.91865275  0.58871847  0.81426902    -0.39600
O1851       O  0.87075615  0.52832321  0.89047937    -0.39600
O1852       O  0.86512664  0.58588785  0.89554042    -0.37300
O1853       O  0.77197696  0.38818145  0.83256146    -0.38200
O1854       O  0.78041870  0.36794877  0.85550186    -0.34400
O1855       O  0.77125093  0.56705883  0.86430396    -0.35800
O1856       O  0.76686536  0.54168763  0.88758187    -0.40100
C1857       C  0.11962067  0.61343031  0.77900950    -0.13800
C1858       C  0.12610329  0.65580632  0.78112816     0.16600
C1859       C  0.15093867  0.68885485  0.77025678     0.02900
C1860       C  0.16741157  0.67875997  0.75717720    -0.12300
C1861       C  0.15915796  0.63586484  0.75466670    -0.03400
C1862       C  0.13605484  0.60326470  0.76593994     0.02100
C1863       C  0.10567140  0.66453421  0.79454048     0.09000
N1864       N  0.15750787  0.73212869  0.77191334     0.65300
H1865       H  0.18511604  0.70413443  0.74862639     0.18200
N1866       N  0.13058564  0.56029707  0.76456867     0.75800
H1867       H  0.10164388  0.58812717  0.78755445     0.09800
C1868       C  0.05978171  0.64248689  0.79606864     0.03400
C1869       C  0.04088616  0.64994214  0.80900410    -0.05300
C1870       C  0.06683243  0.67894587  0.82080504    -0.23700
C1871       C  0.11313630  0.70066713  0.81932803     0.12700
C1872       C  0.13201451  0.69369265  0.80614897    -0.12800
N1873       N  0.03186544  0.61292108  0.78438389     0.64400
H1874       H  0.00544699  0.63300365  0.80966851     0.12200
N1875       N  0.14150823  0.72783057  0.83139282     0.61000
H1876       H  0.16744628  0.71001314  0.80520408     0.08400
O1877       O  0.09353599  0.52807221  0.76107069    -0.40500
O1878       O  0.16057754  0.55351238  0.76926803    -0.39600
O1879       O  0.19495550  0.76356190  0.77549302    -0.39600
O1880       O  0.12804738  0.74003218  0.76748241    -0.37300
O1881       O  0.14737111  0.71009837  0.84312715    -0.38200
O1882       O  0.16717496  0.76823864  0.82893620    -0.34400
O1883       O  0.01208906  0.57200286  0.78677329    -0.35800
O1884       O  0.02232432  0.62776247  0.77265675    -0.40100
C1885       C  0.41506905  0.20342721  0.27400263    -0.13800
C1886       C  0.37489647  0.16368474  0.27461428     0.16600
C1887       C  0.36193592  0.13985884  0.28855453     0.02900
C1888       C  0.38976733  0.15478778  0.30141967    -0.12300
C1889       C  0.43030790  0.19393700  0.30076043    -0.03400
C1890       C  0.44276229  0.21880767  0.28698517     0.02100
C1891       C  0.34960281  0.14406990  0.26024133     0.09000
N1892       N  0.32020777  0.10059188  0.28980461     0.65300
H1893       H  0.37942366  0.13597680  0.31204456     0.18200
N1894       N  0.48456922  0.25811594  0.28573163     0.75800
H1895       H  0.42570637  0.22158955  0.26325560     0.09800
C1896       C  0.32547088  0.16064008  0.25273645     0.03400
C1897       C  0.30133963  0.13989474  0.23932987    -0.05300
C1898       C  0.30066370  0.10245299  0.23322857    -0.23700
C1899       C  0.32659640  0.08724462  0.24055469     0.12700
C1900       C  0.35028008  0.10787264  0.25393174    -0.12800
N1901       N  0.32359460  0.19720907  0.25897575     0.64400
H1902       H  0.28183595  0.15228168  0.23402641     0.12200
N1903       N  0.33016342  0.05144889  0.23445468     0.61000
H1904       H  0.36969495  0.09562781  0.25942778     0.08400
O1905       O  0.48683201  0.29504309  0.28550644    -0.40500
O1906       O  0.51812814  0.25562093  0.28247920    -0.39600
O1907       O  0.31771460  0.06359141  0.28924070    -0.39600
O1908       O  0.28697211  0.10299836  0.29364303    -0.37300
O1909       O  0.31386005  0.01561944  0.24177569    -0.38200
O1910       O  0.35571998  0.05804331  0.22329741    -0.34400
O1911       O  0.34036388  0.23300645  0.25162591    -0.35800
O1912       O  0.29962708  0.19174516  0.27053024    -0.40100
C1913       C  0.24799418  0.84156091  0.20035981    -0.13800
C1914       C  0.20860775  0.84029988  0.19674004     0.16600
C1915       C  0.17372812  0.80188094  0.19022857     0.02900
C1916       C  0.17819114  0.76483522  0.18810927    -0.12300
C1917       C  0.21695547  0.76545330  0.19248169    -0.03400
C1918       C  0.25249207  0.80475071  0.19826320     0.02100
C1919       C  0.20620407  0.88054098  0.19932653     0.09000
N1920       N  0.13312682  0.79943259  0.18631600     0.65300
H1921       H  0.15054240  0.73492393  0.18364101     0.18200
N1922       N  0.29409876  0.80853552  0.20130997     0.75800
H1923       H  0.27573303  0.87164622  0.20468930     0.09800
C1924       C  0.21478637  0.89989041  0.21406789     0.03400
C1925       C  0.22215633  0.94245447  0.21581775    -0.05300
C1926       C  0.22014098  0.96621026  0.20312068    -0.23700
C1927       C  0.20828290  0.94553206  0.18849966     0.12700
C1928       C  0.20183471  0.90307002  0.18670553    -0.12800
N1929       N  0.21654108  0.87666977  0.22735420     0.64400
H1930       H  0.22962369  0.95701322  0.22723166     0.12200
N1931       N  0.20543109  0.96805662  0.17520211     0.61000
H1932       H  0.19554789  0.88854646  0.17529165     0.08400
O1933       O  0.30684067  0.81071657  0.21507317    -0.40500
O1934       O  0.32120687  0.81842613  0.19042225    -0.39600
O1935       O  0.11904457  0.79103476  0.17261825    -0.39600
O1936       O  0.10877735  0.80007116  0.19684643    -0.37300
O1937       O  0.16836395  0.96070176  0.17057554    -0.38200
O1938       O  0.23866068  0.98936928  0.16672261    -0.34400
O1939       O  0.25249541  0.88973758  0.23431653    -0.35800
O1940       O  0.18132717  0.84732431  0.23339524    -0.40100
C1941       C  0.05512028  0.04459991  0.10518807    -0.13800
C1942       C  0.05399962  0.01183600  0.11477626     0.16600
C1943       C  0.03133887  0.96782461  0.10969128     0.02900
C1944       C  0.01124478  0.95775397  0.09512361    -0.12300
C1945       C  0.01028077  0.99007607  0.08581339    -0.03400
C1946       C  0.03332042  0.03421591  0.09093089     0.02100
C1947       C  0.07594666  0.02487345  0.13011045     0.09000
N1948       N  0.02523230  0.93262697  0.11961885     0.65300
H1949       H  0.99419952  0.92382093  0.09144701     0.18200
N1950       N  0.03586806  0.06912328  0.08171597     0.75800
H1951       H  0.07286496  0.07864822  0.10887565     0.09800
C1952       C  0.10976206  0.01664873  0.13458907     0.03400
C1953       C  0.13204413  0.03361109  0.14861153    -0.05300
C1954       C  0.12219110  0.05985984  0.15808093    -0.23700
C1955       C  0.08674535  0.06586816  0.15394909     0.12700
C1956       C  0.06412335  0.04840987  0.14011932    -0.12800
N1957       N  0.12444622  0.99452932  0.12450827     0.64400
H1958       H  0.15934217  0.02893873  0.15151641     0.12200
N1959       N  0.07330576  0.08979097  0.16363108     0.61000
H1960       H  0.03756047  0.05406172  0.13700467     0.08400
O1961       O  0.06698548  0.08856764  0.07224055    -0.40500
O1962       O  0.01295595  0.08612324  0.08525112    -0.39600
O1963       O  0.00371075  0.92562875  0.13195584    -0.39600
O1964       O  0.03330679  0.90370823  0.11468761    -0.37300
O1965       O  0.07990268  0.12689578  0.15932149    -0.38200
O1966       O  0.04743576  0.07035704  0.17469438    -0.34400
O1967       O  0.14349164  0.01271441  0.11205690    -0.35800
O1968       O  0.12603797  0.96150430  0.12933202    -0.40100
C1969       C  0.24049844  0.27185412  0.19514849    -0.13800
C1970       C  0.20422940  0.27769631  0.19310803     0.16600
C1971       C  0.16287073  0.24099282  0.18969470     0.02900
C1972       C  0.15871802  0.19979784  0.18772154    -0.12300
C1973       C  0.19508537  0.19398104  0.18916820    -0.03400
C1974       C  0.23623942  0.23028802  0.19324560     0.02100
C1975       C  0.21053476  0.32255266  0.19266803     0.09000
N1976       N  0.12479095  0.24520562  0.18801297     0.65300
H1977       H  0.12667417  0.17210677  0.18498150     0.18200
N1978       N  0.27453226  0.22627346  0.19430156     0.75800
H1979       H  0.27261897  0.29999164  0.19747370     0.09800
C1980       C  0.22772780  0.35160313  0.20524925     0.03400
C1981       C  0.23173957  0.39321059  0.20431352    -0.05300
C1982       C  0.21735056  0.40607694  0.19116708    -0.23700
C1983       C  0.20118017  0.37694889  0.17839011     0.12700
C1984       C  0.19889396  0.33624735  0.17919762    -0.12800
N1985       N  0.23889708  0.33841113  0.21933995     0.64400
H1986       H  0.24464163  0.41479560  0.21421637     0.12200
N1987       N  0.18658909  0.38758057  0.16448747     0.61000
H1988       H  0.18688876  0.31460399  0.16926860     0.08400
O1989       O  0.28898962  0.22388576  0.20738694    -0.40500
O1990       O  0.29788787  0.23279199  0.18247867    -0.39600
O1991       O  0.10679422  0.23954993  0.17495068    -0.39600
O1992       O  0.10508629  0.24704092  0.19987724    -0.37300
O1993       O  0.20820885  0.39360428  0.15224454    -0.38200
O1994       O  0.14735308  0.37912161  0.16355182    -0.34400
O1995       O  0.27861853  0.35571548  0.22334485    -0.35800
O1996       O  0.20908660  0.31537285  0.22890281    -0.40100
C1997       C  0.30552255  0.01258394  0.37076471    -0.13800
C1998       C  0.28947270  0.99633603  0.35598705     0.16600
C1999       C  0.31314075  0.02028408  0.34293790     0.02900
C2000       C  0.35301243  0.05942173  0.34482057    -0.12300
C2001       C  0.36962989  0.07587336  0.35959748    -0.03400
C2002       C  0.34519241  0.05224776  0.37268975     0.02100
C2003       C  0.24983003  0.95270178  0.35424660     0.09000
N2004       N  0.29669633  0.00547708  0.32770219     0.65300
H2005       H  0.37075862  0.07741070  0.33462041     0.18200
N2006       N  0.36146495  0.06636740  0.38796457     0.75800
H2007       H  0.28765790  0.99388241  0.38083813     0.09800
C2008       C  0.25362188  0.91594550  0.35041444     0.03400
C2009       C  0.21594612  0.87562123  0.34746909    -0.05300
C2010       C  0.17410032  0.87080847  0.34872839    -0.23700
C2011       C  0.17013658  0.90720049  0.35316569     0.12700
C2012       C  0.20808728  0.94802798  0.35576744    -0.12800
N2013       N  0.29554746  0.91890945  0.34987349     0.64400
H2014       H  0.21939633  0.84764763  0.34442234     0.12200
N2015       N  0.12809831  0.90378860  0.35425646     0.61000
H2016       H  0.20504354  0.97629941  0.35869422     0.08400
O2017       O  0.37719656  0.04651482  0.39534393    -0.40500
O2018       O  0.35091513  0.09083067  0.39515256    -0.39600
O2019       O  0.26653726  0.01121566  0.32244572    -0.39600
O2020       O  0.31725705  0.99412902  0.31866984    -0.37300
O2021       O  0.11030260  0.89875730  0.36729805    -0.38200
O2022       O  0.11280778  0.91378773  0.34276973    -0.34400
O2023       O  0.31187464  0.91374424  0.36212222    -0.35800
O2024       O  0.31170881  0.91777669  0.33702220    -0.40100
C2025       C  0.10656587  0.67914000  0.30273571    -0.13800
C2026       C  0.12405640  0.70441853  0.28931494     0.16600
C2027       C  0.13193982  0.74783555  0.28898488     0.02900
C2028       C  0.12441367  0.76589331  0.30220391    -0.12300
C2029       C  0.10792935  0.74112858  0.31579404    -0.03400
C2030       C  0.09832930  0.69706439  0.31592787     0.02100
C2031       C  0.13611579  0.68595575  0.27605151     0.09000
N2032       N  0.14650735  0.77359451  0.27518706     0.65300
H2033       H  0.13129949  0.79956626  0.30181073     0.18200
N2034       N  0.08326724  0.67117628  0.32965769     0.75800
H2035       H  0.10059981  0.64579550  0.30312428     0.09800
C2036       C  0.18041564  0.70146744  0.27232269     0.03400
C2037       C  0.19099262  0.68467009  0.25943609    -0.05300
C2038       C  0.15817956  0.65164993  0.25014933    -0.23700
C2039       C  0.11365411  0.63567817  0.25408808     0.12700
C2040       C  0.10312365  0.65291972  0.26694129    -0.12800
N2041       N  0.21507100  0.73294884  0.28190624     0.64400
H2042       H  0.22532827  0.69700688  0.25691333     0.12200
N2043       N  0.07867937  0.60309769  0.24492032     0.61000
H2044       H  0.06895682  0.64089096  0.26969927     0.08400
O2045       O  0.11075761  0.67122351  0.33902302    -0.40500
O2046       O  0.04310389  0.64295178  0.33109412    -0.39600
O2047       O  0.11926145  0.76628824  0.26450883    -0.39600
O2048       O  0.18312177  0.80881907  0.27503781    -0.37300
O2049       O  0.05777359  0.56382500  0.24959507    -0.38200
O2050       O  0.06363083  0.61485668  0.23383514    -0.34400
O2051       O  0.22368753  0.72049781  0.29442935    -0.35800
O2052       O  0.24231419  0.77015109  0.27647974    -0.40100
C2053       C  0.97070448  0.76699918  0.42730192    -0.13800
C2054       C  0.98545228  0.81199733  0.42643602     0.16600
C2055       C  0.01037319  0.83628574  0.41362019     0.02900
C2056       C  0.01806339  0.81474250  0.40145499    -0.12300
C2057       C  0.00116969  0.76906406  0.40191386    -0.03400
C2058       C  0.97872573  0.74546594  0.41533262     0.02100
C2059       C  0.97418485  0.83241824  0.43917112     0.09000
N2060       N  0.02580583  0.88226640  0.41241977     0.65300
H2061       H  0.03526103  0.83343590  0.39129621     0.18200
N2062       N  0.96447713  0.69978086  0.41712867     0.75800
H2063       H  0.95289697  0.74846634  0.43741559     0.09800
C2064       C  0.93001055  0.81876260  0.44235150     0.03400
C2065       C  0.91919776  0.83355652  0.45565124    -0.05300
C2066       C  0.95182148  0.86224098  0.46598102    -0.23700
C2067       C  0.99629336  0.87655105  0.46264329     0.12700
C2068       C  0.00707694  0.86170274  0.44924491    -0.12800
N2069       N  0.89577319  0.78995243  0.43207806     0.64400
H2070       H  0.88496955  0.82279520  0.45781120     0.12200
N2071       N  0.03060320  0.90401327  0.47311843     0.61000
H2072       H  0.04105860  0.87151206  0.44704930     0.08400
O2073       O  0.92444664  0.67248083  0.41952212    -0.40500
O2074       O  0.99256579  0.68788151  0.41877150    -0.39600
O2075       O  0.06625796  0.90962346  0.41377381    -0.39600
O2076       O  0.99997035  0.89517496  0.40807487    -0.37300
O2077       O  0.03685649  0.88752815  0.48512623    -0.38200
O2078       O  0.05905974  0.94239173  0.46905154    -0.34400
O2079       O  0.86839018  0.75135249  0.43631317    -0.35800
O2080       O  0.88912609  0.80502087  0.41978860    -0.40100
C2081       C  0.80992996  0.47653249  0.35935232    -0.13800
C2082       C  0.81194727  0.51196833  0.36740900     0.16600
C2083       C  0.77358172  0.50766381  0.37408275     0.02900
C2084       C  0.73400622  0.46813369  0.37258147    -0.12300
C2085       C  0.73129383  0.43291339  0.36407306    -0.03400
C2086       C  0.77010096  0.43703163  0.35769206     0.02100
C2087       C  0.85418944  0.55348601  0.36852935     0.09000
N2088       N  0.77372280  0.54384114  0.38166431     0.65300
H2089       H  0.70488638  0.46556503  0.37774461     0.18200
N2090       N  0.77015560  0.40097185  0.35015547     0.75800
H2091       H  0.83955116  0.47948547  0.35443740     0.09800
C2092       C  0.87510561  0.56959912  0.38284338     0.03400
C2093       C  0.91275372  0.61108235  0.38360284    -0.05300
C2094       C  0.93051873  0.63687397  0.37028432    -0.23700
C2095       C  0.91052153  0.61982952  0.35586537     0.12700
C2096       C  0.87251979  0.57836882  0.35511926    -0.12800
N2097       N  0.85893631  0.54398318  0.39663538     0.64400
H2098       H  0.92828650  0.62317053  0.39472449     0.12200
N2099       N  0.92655887  0.64519190  0.34205935     0.61000
H2100       H  0.85639514  0.56611888  0.34408373     0.08400
O2101       O  0.77603068  0.37415125  0.35801903    -0.40500
O2102       O  0.77289380  0.40083090  0.33563913    -0.39600
O2103       O  0.77989256  0.57673006  0.37383380    -0.39600
O2104       O  0.75894944  0.53915051  0.39522100    -0.37300
O2105       O  0.95156309  0.63918461  0.33327731    -0.38200
O2106       O  0.90902067  0.66655966  0.33718683    -0.34400
O2107       O  0.86397427  0.51125374  0.39857663    -0.35800
O2108       O  0.84813955  0.55896404  0.40797439    -0.40100
C2109       C  0.17436428  0.27604937  0.02749345    -0.13800
C2110       C  0.18117822  0.24029250  0.02582926     0.16600
C2111       C  0.22439973  0.24849062  0.02375916     0.02900
C2112       C  0.25974566  0.29176342  0.02389860    -0.12300
C2113       C  0.25301133  0.32725601  0.02651780    -0.03400
C2114       C  0.20968401  0.31915903  0.02804595     0.02100
C2115       C  0.14262500  0.19496147  0.02591473     0.09000
N2116       N  0.23324612  0.21319117  0.02254664     0.65300
H2117       H  0.29282037  0.29732196  0.02297619     0.18200
N2118       N  0.20092991  0.35434103  0.03008964     0.75800
H2119       H  0.14130565  0.27050344  0.02838009     0.09800
C2120       C  0.11084756  0.18069558  0.03771050     0.03400
C2121       C  0.07359115  0.13884642  0.03698580    -0.05300
C2122       C  0.06713214  0.10968634  0.02481911    -0.23700
C2123       C  0.09950818  0.12392094  0.01311062     0.12700
C2124       C  0.13630498  0.16634366  0.01366765    -0.12800
N2125       N  0.11635705  0.20794200  0.05073469     0.64400
H2126       H  0.04982387  0.12914225  0.04622513     0.12200
N2127       N  0.09590180  0.09605659  0.00055092     0.61000
H2128       H  0.15994135  0.17709465  0.00434994     0.08400
O2129       O  0.18232442  0.35627914  0.04225020    -0.40500
O2130       O  0.20480892  0.37870816  0.01879293    -0.39600
O2131       O  0.24903494  0.20796943  0.01020765    -0.39600
O2132       O  0.23270369  0.19249543  0.03452805    -0.37300
O2133       O  0.08608305  0.10342251  0.98730896    -0.38200
O2134       O  0.11249052  0.07173453  0.00187021    -0.34400
O2135       O  0.09069177  0.22277603  0.05257430    -0.35800
O2136       O  0.14100075  0.21019143  0.06170735    -0.40100
C2137       C  0.29990546  0.54327243  0.10350791    -0.13800
C2138       C  0.29423341  0.50111557  0.10245209     0.16600
C2139       C  0.27965891  0.47335509  0.11546089     0.02900
C2140       C  0.26966013  0.48770743  0.12914280    -0.12300
C2141       C  0.27454888  0.52973870  0.13018026    -0.03400
C2142       C  0.29044967  0.55785110  0.11722557     0.02100
C2143       C  0.30284968  0.48647533  0.08755742     0.09000
N2144       N  0.27584059  0.43099433  0.11502982     0.65300
H2145       H  0.25878411  0.46629017  0.13910089     0.18200
N2146       N  0.29674645  0.60113500  0.11767079     0.75800
H2147       H  0.31121627  0.56480858  0.09353601     0.09800
C2148       C  0.26876248  0.46348475  0.07688414     0.03400
C2149       C  0.27727918  0.44884193  0.06305090    -0.05300
C2150       C  0.31965498  0.45694042  0.05942891    -0.23700
C2151       C  0.35445395  0.48274405  0.06973174     0.12700
C2152       C  0.34565283  0.49681938  0.08375713    -0.12800
N2153       N  0.22526275  0.45473742  0.07995827     0.64400
H2154       H  0.25019979  0.43036507  0.05518125     0.12200
N2155       N  0.39857284  0.49409255  0.06637327     0.61000
H2156       H  0.37227892  0.51564827  0.09177167     0.08400
O2157       O  0.33457983  0.63338774  0.11516845    -0.40500
O2158       O  0.26387076  0.60629251  0.11685124    -0.39600
O2159       O  0.30630724  0.42609443  0.12050518    -0.39600
O2160       O  0.23940752  0.39757131  0.11177529    -0.37300
O2161       O  0.42351262  0.52973897  0.05948833    -0.38200
O2162       O  0.41480345  0.47333152  0.07282081    -0.34400
O2163       O  0.21372324  0.48139696  0.07528825    -0.35800
O2164       O  0.19646287  0.41710204  0.08457211    -0.40100
C2165       C  0.49370914  0.37610923  0.97133189    -0.13800
C2166       C  0.46466156  0.36653155  0.95891045     0.16600
C2167       C  0.42761148  0.37148198  0.96096734     0.02900
C2168       C  0.42176653  0.38802805  0.97495597    -0.12300
C2169       C  0.45246603  0.40017480  0.98699519    -0.03400
C2170       C  0.48807661  0.39278810  0.98527912     0.02100
C2171       C  0.47345826  0.35047965  0.94416220     0.09000
N2172       N  0.39695076  0.36218221  0.94870889     0.65300
H2173       H  0.39437086  0.39366110  0.97608530     0.18200
N2174       N  0.51790911  0.40055951  0.99774763     0.75800
H2175       H  0.52078716  0.36999479  0.97025088     0.09800
C2176       C  0.51500236  0.37318139  0.93701614     0.03400
C2177       C  0.52372225  0.35559185  0.92393276    -0.05300
C2178       C  0.49158750  0.31558804  0.91735238    -0.23700
C2179       C  0.44954373  0.29338510  0.92436471     0.12700
C2180       C  0.44119927  0.31063829  0.93770435    -0.12800
N2181       N  0.54868536  0.41465209  0.94277945     0.64400
H2182       H  0.55618190  0.37384995  0.91889999     0.12200
N2183       N  0.41438280  0.25395080  0.91798593     0.61000
H2184       H  0.40929042  0.29240374  0.94313496     0.08400
O2185       O  0.55851056  0.41803104  0.99511212    -0.40500
O2186       O  0.50315169  0.38300731  0.01072475    -0.39600
O2187       O  0.35844049  0.32984100  0.94982238    -0.39600
O2188       O  0.40582053  0.39028630  0.93820284    -0.37300
O2189       O  0.40033821  0.21834468  0.92527673    -0.38200
O2190       O  0.39010624  0.25690349  0.90793142    -0.34400
O2191       O  0.58321688  0.41795049  0.94846356    -0.35800
O2192       O  0.54729569  0.44900766  0.93976015    -0.40100
C2193       C  0.64882621  0.68822956  0.00985761    -0.13800
C2194       C  0.63050416  0.66571367  0.02367003     0.16600
C2195       C  0.65111934  0.68463493  0.03780323     0.02900
C2196       C  0.69022567  0.72525773  0.03787930    -0.12300
C2197       C  0.70960374  0.74702799  0.02399748    -0.03400
C2198       C  0.68801618  0.72866154  0.00990240     0.02100
C2199       C  0.59278112  0.62051228  0.02281244     0.09000
N2200       N  0.63437449  0.66168313  0.05203566     0.65300
H2201       H  0.70650967  0.73887968  0.04879426     0.18200
N2202       N  0.70509536  0.75095844  0.99558030     0.75800
H2203       H  0.63297648  0.67385790  0.99895157     0.09800
C2204       C  0.54988229  0.61020649  0.02663763     0.03400
C2205       C  0.51505585  0.56692246  0.02491164    -0.05300
C2206       C  0.52210396  0.53375227  0.01894029    -0.23700
C2207       C  0.56550506  0.54456111  0.01525661     0.12700
C2208       C  0.60018304  0.58750567  0.01730805    -0.12800
N2209       N  0.54080565  0.64383515  0.03120122     0.64400
H2210       H  0.48208545  0.55986180  0.02752318     0.12200
N2211       N  0.57521600  0.51254037  0.00938210     0.61000
H2212       H  0.63323004  0.59535058  0.01435929     0.08400
O2213       O  0.72374934  0.73759191  0.98647085    -0.40500
O2214       O  0.69450783  0.77830786  0.99086994    -0.39600
O2215       O  0.64718750  0.63612786  0.05682262    -0.39600
O2216       O  0.61467624  0.67379150  0.06117143    -0.37300
O2217       O  0.58580148  0.51424823  0.99538257    -0.38200
O2218       O  0.58291703  0.48967139  0.01870896    -0.34400
O2219       O  0.53704135  0.66740004  0.02101305    -0.35800
O2220       O  0.52842687  0.64437838  0.04481079    -0.40100
C2221       C  0.06172113  0.53476302  0.61052637    -0.13800
C2222       C  0.03910023  0.48924702  0.60805208     0.16600
C2223       C  0.04370111  0.46177851  0.61874231     0.02900
C2224       C  0.07220308  0.48012703  0.63130400    -0.12300
C2225       C  0.09650831  0.52594153  0.63360104    -0.03400
C2226       C  0.09026706  0.55333580  0.62315779     0.02100
C2227       C  0.01596592  0.47148257  0.59322397     0.09000
N2228       N  0.01957762  0.41507531  0.61694338     0.65300
H2229       H  0.07516738  0.45812169  0.63933397     0.18200
N2230       N  0.11534358  0.60009701  0.62434175     0.75800
H2231       H  0.05889664  0.55617001  0.60217236     0.09800
C2232       C  0.97544917  0.46839849  0.58994379     0.03400
C2233       C  0.95539184  0.45249312  0.57555507    -0.05300
C2234       C  0.97520330  0.43948164  0.56426948    -0.23700
C2235       C  0.01668379  0.44402579  0.56741761     0.12700
C2236       C  0.03622826  0.45932141  0.58192868    -0.12800
N2237       N  0.95356572  0.47964720  0.60134729     0.64400
H2238       H  0.92343439  0.44886615  0.57340276     0.12200
N2239       N  0.04051654  0.43584551  0.55577016     0.61000
H2240       H  0.06815477  0.46306591  0.58427966     0.08400
O2241       O  0.09654712  0.62106128  0.62823351    -0.40500
O2242       O  0.15217030  0.62028421  0.61775695    -0.39600
O2243       O  0.03972749  0.39443106  0.61467044    -0.39600
O2244       O  0.97909838  0.39403851  0.62000818    -0.37300
O2245       O  0.04710931  0.45462140  0.54282091    -0.38200
O2246       O  0.06182102  0.41706049  0.55931076    -0.34400
O2247       O  0.95357603  0.51540177  0.60029240    -0.35800
O2248       O  0.92968819  0.45154503  0.61129547    -0.40100
C2249       C  0.88580885  0.15958149  0.53848500    -0.13800
C2250       C  0.88771277  0.18060502  0.52456380     0.16600
C2251       C  0.88620940  0.15988584  0.51050799     0.02900
C2252       C  0.88265611  0.11832841  0.51058316    -0.12300
C2253       C  0.88194416  0.09757011  0.52456657    -0.03400
C2254       C  0.88339239  0.11870257  0.53864119     0.02100
C2255       C  0.89622269  0.22618755  0.52510722     0.09000
N2256       N  0.89149873  0.18209687  0.49616461     0.65300
H2257       H  0.88254138  0.10321593  0.49967983     0.18200
N2258       N  0.88320921  0.09956349  0.55322865     0.75800
H2259       H  0.88761672  0.17572700  0.54933511     0.09800
C2260       C  0.86235133  0.23599380  0.52348945     0.03400
C2261       C  0.87183351  0.27960170  0.52496894    -0.05300
C2262       C  0.91448948  0.31360621  0.52864802    -0.23700
C2263       C  0.94848557  0.30353788  0.52999423     0.12700
C2264       C  0.93900031  0.26009140  0.52816260    -0.16400
N2265       N  0.81779149  0.20167575  0.52155956     0.64400
H2266       H  0.84508897  0.28635769  0.52425379     0.12200
N2267       N  0.99279989  0.33687639  0.53316539     0.61000
H2268       H  0.96516125  0.25257696  0.52931993     0.08400
O2269       O  0.91912591  0.11143678  0.56006462    -0.40500
O2270       O  0.84769435  0.07846126  0.56058966    -0.39600
O2271       O  0.92938942  0.20591574  0.49061507    -0.39600
O2272       O  0.85861782  0.17964766  0.48939749    -0.37300
O2273       O  0.01371958  0.33126619  0.54391695    -0.38200
O2274       O  0.01330681  0.36749932  0.52356057    -0.34400
O2275       O  0.79691328  0.17824027  0.53299366    -0.35800
O2276       O  0.79728846  0.19981382  0.50936535    -0.40100
C2277       C  0.89160057  0.68160266  0.54088403    -0.13800
C2278       C  0.88333101  0.65796761  0.52708159     0.16600
C2279       C  0.87808676  0.67611044  0.51331168     0.02900
C2280       C  0.88045021  0.71695640  0.51352142    -0.12300
C2281       C  0.88788591  0.74061083  0.52733828    -0.03400
C2282       C  0.89362879  0.72248501  0.54116870     0.02100
C2283       C  0.87549393  0.61248455  0.52735538     0.09000
N2284       N  0.87030663  0.65326822  0.49898411     0.65300
H2285       H  0.87638457  0.73016917  0.50274035     0.18200
N2286       N  0.89851678  0.74352806  0.55573011     0.75800
H2287       H  0.89466720  0.66739719  0.55159182     0.09800
C2288       C  0.90929258  0.60323156  0.53042899     0.03400
C2289       C  0.90059360  0.55970395  0.52968950    -0.05300
C2290       C  0.85854039  0.52514764  0.52577590    -0.23700
C2291       C  0.82424136  0.53440908  0.52361334     0.12700
C2292       C  0.83303419  0.57776100  0.52434544    -0.12800
N2293       N  0.95313564  0.63794998  0.53325770     0.64400
H2294       H  0.92743037  0.55336520  0.53122458     0.12200
N2295       N  0.78019510  0.50005792  0.52071692     0.61000
H2296       H  0.80655197  0.58445815  0.52243108     0.08400
O2297       O  0.86482314  0.73486914  0.56347974    -0.40500
O2298       O  0.93584542  0.76393317  0.56203278    -0.39600
O2299       O  0.83214818  0.63364163  0.49329477    -0.39600
O2300       O  0.90242997  0.65894683  0.49086852    -0.37300
O2301       O  0.75671297  0.47684596  0.53178331    -0.38200
O2302       O  0.76279763  0.49739106  0.50771588    -0.34400
O2303       O  0.96939269  0.64305632  0.54660492    -0.35800
O2304       O  0.97767454  0.65864384  0.52202972    -0.40100
C2305       C  0.75082691  0.34175576  0.47257721    -0.13800
C2306       C  0.74779204  0.37074172  0.46209942     0.16600
C2307       C  0.77008615  0.41603912  0.46551212     0.02900
C2308       C  0.79413670  0.43136247  0.47917293    -0.12300
C2309       C  0.79692065  0.40259813  0.48978995    -0.03400
C2310       C  0.77502972  0.35723461  0.48636517     0.02100
C2311       C  0.71890391  0.35323257  0.44825173     0.09000
N2312       N  0.76907354  0.44714158  0.45512788     0.65300
H2313       H  0.81119376  0.46642944  0.48138046     0.18200
N2314       N  0.77433882  0.32622660  0.49719693     0.75800
H2315       H  0.73283038  0.30670908  0.47035566     0.09800
C2316       C  0.72295027  0.32518617  0.43762144     0.03400
C2317       C  0.69463003  0.30883657  0.42488587    -0.05300
C2318       C  0.66286765  0.32096024  0.42213615    -0.23700
C2319       C  0.65826928  0.34843525  0.43294634     0.12700
C2320       C  0.68588795  0.36387564  0.44588441    -0.12800
N2321       N  0.75706214  0.31476361  0.43916479     0.64400
H2322       H  0.69866858  0.28781602  0.41677603     0.12200
N2323       N  0.62462133  0.35953477  0.43132438     0.61000
H2324       H  0.68115201  0.38397657  0.45424294     0.08400
O2325       O  0.79248100  0.30423896  0.49384433    -0.40500
O2326       O  0.74934928  0.31542275  0.50877760    -0.39600
O2327       O  0.75050120  0.46822158  0.45917743    -0.39600
O2328       O  0.79344205  0.45935704  0.44336553    -0.37300
O2329       O  0.58641893  0.33322077  0.43614800    -0.38200
O2330       O  0.63474790  0.39825859  0.42771706    -0.34400
O2331       O  0.74734820  0.27554624  0.44163028    -0.35800
O2332       O  0.79583755  0.34293406  0.43543955    -0.40100
C2333       C  0.53833119  0.56101112  0.87654059    -0.13800
C2334       C  0.55629573  0.55478590  0.86299609     0.16600
C2335       C  0.57257638  0.58790714  0.85158766     0.02900
C2336       C  0.57223313  0.62703726  0.85417938    -0.12300
C2337       C  0.55657171  0.63414466  0.86812232    -0.03400
C2338       C  0.53845701  0.60027141  0.87924490     0.02100
C2339       C  0.55714760  0.51326507  0.86106627     0.09000
N2340       N  0.59210776  0.58350039  0.83777257     0.65300
H2341       H  0.58663889  0.65300602  0.84562437     0.18200
N2342       N  0.51882781  0.60463501  0.89308712     0.75800
H2343       H  0.52377887  0.53496158  0.88505457     0.09800
C2344       C  0.57490737  0.49863519  0.87265028     0.03400
C2345       C  0.57214223  0.45783825  0.87126016    -0.05300
C2346       C  0.55243830  0.43065286  0.85833052    -0.23700
C2347       C  0.53512518  0.44568809  0.84657612     0.12700
C2348       C  0.53750267  0.48655221  0.84809520    -0.12800
N2349       N  0.59672376  0.52528587  0.88581934     0.64400
H2350       H  0.58601307  0.44772864  0.88046118     0.12200
N2351       N  0.51512574  0.42027311  0.83301686     0.61000
H2352       H  0.52299027  0.49699433  0.83922719     0.08400
O2353       O  0.52724713  0.59324946  0.90587763    -0.40500
O2354       O  0.48720713  0.61176466  0.89217335    -0.39600
O2355       O  0.57357362  0.57983559  0.82493720    -0.39600
O2356       O  0.63089289  0.59048120  0.83811859    -0.37300
O2357       O  0.47465858  0.39219343  0.83310125    -0.38200
O2358       O  0.53503641  0.43261012  0.82029290    -0.34400
O2359       O  0.58092975  0.51225012  0.89912392    -0.35800
O2360       O  0.63502739  0.55779357  0.88442629    -0.40100
C2361       C  0.65563035  0.76399456  0.92658172    -0.13800
C2362       C  0.68298969  0.80968900  0.92629374     0.16600
C2363       C  0.67988076  0.83355900  0.91371686     0.02900
C2364       C  0.65017618  0.81109334  0.90161179    -0.12300
C2365       C  0.62427196  0.76482093  0.90149948    -0.03400
C2366       C  0.62691958  0.74147773  0.91441360     0.02100
C2367       C  0.71575769  0.83037970  0.93895597     0.09000
N2368       N  0.70883551  0.87999233  0.91245821     0.65300
H2369       H  0.64930857  0.82989206  0.89184177     0.18200
N2370       N  0.60126278  0.69469908  0.91540067     0.75800
H2371       H  0.65738178  0.74531947  0.93624664     0.09800
C2372       C  0.71489144  0.86052845  0.94944980     0.03400
C2373       C  0.74402608  0.87563622  0.96203241    -0.05300
C2374       C  0.77342309  0.86025626  0.96473901    -0.23700
C2375       C  0.77465321  0.83064026  0.95403361     0.12700
C2376       C  0.74618644  0.81629323  0.94131029    -0.12800
N2377       N  0.68249368  0.87345458  0.94822571     0.64400
H2378       H  0.74201593  0.89790178  0.97017497     0.12200
N2379       N  0.80484597  0.81506735  0.95577444     0.61000
H2380       H  0.74729153  0.79322644  0.93330624     0.08400
O2381       O  0.56753309  0.67746713  0.92383285    -0.40500
O2382       O  0.61822450  0.67207489  0.91139757    -0.39600
O2383       O  0.74871018  0.89464435  0.90920551    -0.39600
O2384       O  0.69317318  0.90521257  0.91150722    -0.37300
O2385       O  0.79132290  0.77662021  0.96072024    -0.38200
O2386       O  0.84243876  0.83625643  0.94974594    -0.34400
O2387       O  0.64311681  0.84620358  0.95159494    -0.35800
O2388       O  0.69442399  0.91368233  0.94704091    -0.40100
C2389       C  0.46703086  0.69752587  0.79297617    -0.13800
C2390       C  0.43407661  0.70765590  0.78965897     0.16600
C2391       C  0.42831879  0.73604453  0.79955374     0.02900
C2392       C  0.45622731  0.75481790  0.81221351    -0.12300
C2393       C  0.48944149  0.74508716  0.81560080    -0.03400
C2394       C  0.49470427  0.71597865  0.80586325     0.02100
C2395       C  0.40539242  0.68811260  0.77598982     0.09000
N2396       N  0.39300618  0.74453803  0.79731000     0.65300
H2397       H  0.45102566  0.77636561  0.81973184     0.18200
N2398       N  0.52928013  0.70670894  0.80840461     0.75800
H2399       H  0.47168127  0.67575134  0.78539293     0.09800
C2400       C  0.40692975  0.71422069  0.76338780     0.03400
C2401       C  0.37634601  0.69539957  0.75140439    -0.05300
C2402       C  0.34427392  0.65051241  0.75153623    -0.23700
C2403       C  0.34352230  0.62421463  0.76399599     0.12700
C2404       C  0.37388418  0.64323815  0.77609800    -0.12800
N2405       N  0.44001185  0.75960947  0.76239494     0.64400
H2406       H  0.37810428  0.71602031  0.74180280     0.12200
N2407       N  0.31029444  0.57903201  0.76515950     0.61000
H2408       H  0.37210608  0.62308889  0.78585329     0.08400
O2409       O  0.56677477  0.73191183  0.80278298    -0.40500
O2410       O  0.52046039  0.66975501  0.81371188    -0.39600
O2411       O  0.35391215  0.71371579  0.79899762    -0.39600
O2412       O  0.40090293  0.78367041  0.79654343    -0.37300
O2413       O  0.28052269  0.56782264  0.77514615    -0.38200
O2414       O  0.31675015  0.55009492  0.75918872    -0.34400
O2415       O  0.47717139  0.76983244  0.75699193    -0.35800
O2416       O  0.42918214  0.78866998  0.76333845    -0.40100
C2417       C  0.51395679  0.99026233  0.85557376    -0.13800
C2418       C  0.55330523  0.99148474  0.85918145     0.16600
C2419       C  0.58993484  0.03132616  0.86392037     0.02900
C2420       C  0.58685230  0.06942135  0.86475927    -0.12300
C2421       C  0.54790014  0.06868488  0.86058747    -0.03400
C2422       C  0.51094948  0.02835392  0.85623407     0.02100
C2423       C  0.55657572  0.95201063  0.85611940     0.09000
N2424       N  0.63129143  0.03429778  0.86675395     0.65300
H2425       H  0.61576360  0.10016256  0.86794004     0.18200
N2426       N  0.46996654  0.02534550  0.85266856     0.75800
H2427       H  0.48564352  0.95964178  0.85190691     0.09800
C2428       C  0.55746324  0.92518496  0.86802385     0.03400
C2429       C  0.55807914  0.88668936  0.86431705    -0.05300
C2430       C  0.55642442  0.87379970  0.84884768    -0.23700
C2431       C  0.55637077  0.90152916  0.83698683     0.12700
C2432       C  0.55669497  0.94020489  0.84073967    -0.12800
N2433       N  0.55425984  0.93475537  0.88383157     0.64400
H2434       H  0.55716059  0.86554849  0.87358969     0.12200
N2435       N  0.55527883  0.89070199  0.82103104     0.61000
H2436       H  0.55613211  0.96084521  0.83154092     0.08400
O2437       O  0.44316113  0.01860336  0.86340549    -0.40500
O2438       O  0.45717341  0.02049813  0.83882135    -0.39600
O2439       O  0.65711992  0.04148570  0.85563333    -0.39600
O2440       O  0.64534342  0.03841736  0.88040971    -0.37300
O2441       O  0.51997712  0.87630520  0.81350173    -0.38200
O2442       O  0.59078409  0.90296945  0.81391585    -0.34400
O2443       O  0.51709251  0.92367764  0.88944004    -0.35800
O2444       O  0.58650955  0.94604955  0.89276601    -0.40100
C2445       C  0.90679116  0.27365650  0.66825076    -0.13800
C2446       C  0.91969172  0.28630361  0.68354611     0.16600
C2447       C  0.89179586  0.26105346  0.69565541     0.02900
C2448       C  0.85184799  0.22300202  0.69230421    -0.12300
C2449       C  0.83946958  0.20934458  0.67696278    -0.03400
C2450       C  0.86717093  0.23562686  0.66484267     0.02100
C2451       C  0.96164795  0.32710262  0.68647721     0.09000
N2452       N  0.90475218  0.27243125  0.71138648     0.65300
H2453       H  0.83146413  0.20306445  0.70176710     0.18200
N2454       N  0.85528627  0.22474604  0.64899512     0.75800
H2455       H  0.92751278  0.29373839  0.65886573     0.09800
C2456       C  0.00158645  0.33170165  0.68132667     0.03400
C2457       C  0.04027084  0.37210840  0.68275000    -0.05300
C2458       C  0.03998447  0.40860703  0.68912171    -0.23700
C2459       C  0.99982193  0.40403814  0.69423332     0.12700
C2460       C  0.96116800  0.36322429  0.69304168    -0.12800
N2461       N  0.00332211  0.29551677  0.67464222     0.64400
H2462       H  0.07076091  0.37482468  0.67887524     0.12200
N2463       N  0.99711066  0.44110914  0.69948306     0.61000
H2464       H  0.93028574  0.36025675  0.69654211     0.08400
O2465       O  0.87706312  0.21324697  0.64064237    -0.40500
O2466       O  0.82901260  0.23461054  0.64274838    -0.39600
O2467       O  0.88608101  0.28773606  0.71961377    -0.39600
O2468       O  0.93034048  0.26158074  0.71758959    -0.37300
O2469       O  0.99815523  0.46843280  0.68979298    -0.38200
O2470       O  0.98629508  0.44249410  0.71325515    -0.34400
O2471       O  0.00858542  0.29471712  0.66026696    -0.35800
O2472       O  0.00809574  0.26931529  0.68327340    -0.40100
C2473       C  0.76499873  0.99281355  0.59535059    -0.13800
C2474       C  0.79639719  0.01893102  0.60644600     0.16600
C2475       C  0.83977126  0.02748308  0.60498498     0.02900
C2476       C  0.85117457  0.01036767  0.59246387    -0.12300
C2477       C  0.81992450  0.98378410  0.58139017    -0.03400
C2478       C  0.77642632  0.97532357  0.58281592     0.02100
C2479       C  0.78424435  0.03885123  0.61912054     0.09000
N2480       N  0.87242865  0.05277072  0.61630182     0.65300
H2481       H  0.88475839  0.01767416  0.59147800     0.18200
N2482       N  0.74451077  0.95204610  0.57107061     0.75800
H2483       H  0.73181466  0.98696765  0.59621738     0.09800
C2484       C  0.79811649  0.08396485  0.61898446     0.03400
C2485       C  0.79010423  0.10300093  0.63177590    -0.05300
C2486       C  0.76815788  0.07791348  0.64486198    -0.23700
C2487       C  0.75268867  0.03228852  0.64472673     0.12700
C2488       C  0.76092376  0.01317972  0.63188444    -0.12800
N2489       N  0.82040415  0.11087144  0.60592555     0.64400
H2490       H  0.80143015  0.13787328  0.63148596     0.12200
N2491       N  0.73122247  0.00550562  0.65786422     0.61000
H2492       H  0.75037149  0.97846118  0.63208404     0.08400
O2493       O  0.74127249  0.97293781  0.55977686    -0.40500
O2494       O  0.71480728  0.91274729  0.57336753    -0.39600
O2495       O  0.87401743  0.03442906  0.62861646    -0.39600
O2496       O  0.90479078  0.08952746  0.61260761    -0.37300
O2497       O  0.68987316  0.98266799  0.65811815    -0.38200
O2498       O  0.75339528  0.99880397  0.66781835    -0.34400
O2499       O  0.79854876  0.10953455  0.59417548    -0.35800
O2500       O  0.85961251  0.14173455  0.60729099    -0.40100
C2501       C  0.47809547  0.81485212  0.69382949    -0.13800
C2502       C  0.47567372  0.85328546  0.69499505     0.16600
C2503       C  0.43412138  0.84992848  0.69573954     0.02900
C2504       C  0.39601571  0.80844069  0.69605996    -0.12300
C2505       C  0.39838603  0.76992274  0.69497172    -0.03400
C2506       C  0.43992735  0.77339181  0.69362617     0.02100
C2507       C  0.51674148  0.89645574  0.69605127     0.09000
N2508       N  0.43009273  0.88833136  0.69615000     0.65300
H2509       H  0.36431285  0.80634743  0.69673000     0.18200
N2510       N  0.44400742  0.73515525  0.69236765     0.75800
H2511       H  0.50984437  0.81707606  0.69311323     0.09800
C2512       C  0.54482550  0.90704870  0.70894099     0.03400
C2513       C  0.58173061  0.94909890  0.71024864    -0.05300
C2514       C  0.59194467  0.98057377  0.69865546    -0.23700
C2515       C  0.56520328  0.96944702  0.68541618     0.12700
C2516       C  0.52777726  0.92757305  0.68421209    -0.12800
N2517       N  0.53583474  0.87566742  0.72091677     0.64400
H2518       H  0.60241230  0.95730979  0.72040752     0.12200
N2519       N  0.57446233  0.00110770  0.67351750     0.61000
H2520       H  0.50690118  0.91952408  0.67412394     0.08400
O2521       O  0.44453521  0.71531310  0.70443846    -0.40500
O2522       O  0.45601866  0.72690223  0.67971742    -0.39600
O2523       O  0.42650455  0.90471155  0.68364647    -0.39600
O2524       O  0.42080523  0.89989088  0.70869734    -0.37300
O2525       O  0.56816929  0.03288805  0.67587044    -0.38200
O2526       O  0.59282187  0.99966616  0.66122522    -0.34400
O2527       O  0.55714925  0.85569318  0.72145658    -0.35800
O2528       O  0.51265193  0.87369872  0.73230025    -0.40100
C2529       C  0.60357881  0.12732749  0.78194798    -0.13800
C2530       C  0.63824235  0.15903385  0.77295321     0.16600
C2531       C  0.65857563  0.20349803  0.77745805     0.02900
C2532       C  0.64424115  0.21535146  0.79069427    -0.12300
C2533       C  0.60946774  0.18377401  0.79972964    -0.03400
C2534       C  0.58949644  0.13904937  0.79531135     0.02100
C2535       C  0.65097145  0.14514381  0.75854937     0.09000
N2536       N  0.69432550  0.23705337  0.76885393     0.65300
H2537       H  0.66061183  0.24974265  0.79386774     0.18200
N2538       N  0.55602360  0.10487188  0.80449901     0.75800
H2539       H  0.58708958  0.09307136  0.77854747     0.09800
C2540       C  0.66018554  0.11044506  0.75860263     0.03400
C2541       C  0.66594018  0.09401644  0.74463886    -0.05300
C2542       C  0.66373070  0.11213719  0.73049685    -0.23700
C2543       C  0.65623143  0.14781729  0.73037386     0.12700
C2544       C  0.64966643  0.16384492  0.74433691    -0.12800
N2545       N  0.66347248  0.09129971  0.77274162     0.64400
H2546       H  0.67154918  0.06643101  0.74482187     0.12200
N2547       N  0.65143534  0.16554877  0.71614442     0.61000
H2548       H  0.64132336  0.18953703  0.74399773     0.08400
O2549       O  0.56670600  0.09022662  0.81600193    -0.40500
O2550       O  0.51696181  0.08435569  0.79964148    -0.39600
O2551       O  0.68839075  0.26360829  0.76084813    -0.39600
O2552       O  0.73295218  0.24579742  0.77181981    -0.37300
O2553       O  0.61383734  0.15013543  0.71017401    -0.38200
O2554       O  0.68288228  0.20113690  0.71110006    -0.34400
O2555       O  0.63514936  0.05203795  0.77590324    -0.35800
O2556       O  0.69864810  0.11033427  0.78043401    -0.40100
loop_ 
_geom_bond_atom_site_label_1 
_geom_bond_atom_site_label_2 
_geom_bond_distance 
_geom_bond_site_symmetry_2 
_ccdc_geom_bond_type 
C1            N2   1.354       .  A
C1            N6   1.361       .  A
C1         C2542   1.473       .  S
N2            C3   1.354       .  A
C3            N4   1.358       .  A
C3         C2514   1.471   1_545  S
N4            C5   1.360       .  A
C5            N6   1.365       .  A
C5           C11   1.474       .  S
C7            N8   1.354       .  A
C7           N12   1.362       .  A
C7         C2486   1.484       .  S
N8            C9   1.352       .  A
C9           N10   1.359       .  A
C9         C2449   1.480       .  S
N10          C11   1.361       .  A
C11          N12   1.365       .  A
C13          N14   1.362       .  A
C13          N18   1.352       .  A
C13        C2393   1.483       .  S
N14          C15   1.367       .  A
C15          N16   1.362       .  A
C15          C21   1.476       .  S
N16          C17   1.359       .  A
C17          N18   1.351       .  A
C17        C2430   1.484       .  S
C19          N20   1.363       .  A
C19          N24   1.359       .  A
C19        C2365   1.498       .  S
N20          C21   1.364       .  A
C21          N22   1.359       .  A
N22          C23   1.358       .  A
C23          N24   1.358       .  A
C23        C2337   1.476       .  S
C25          N26   1.363       .  A
C25          N30   1.354       .  A
C25        C2309   1.487       .  S
N26          C27   1.366       .  A
C27          N28   1.363       .  A
C27          C33   1.476       .  S
N28          C29   1.358       .  A
C29          N30   1.352       .  A
C29        C2290   1.482       .  S
C31          N32   1.359       .  A
C31          N36   1.360       .  A
C31        C2234   1.484       .  S
N32          C33   1.360       .  A
C33          N34   1.359       .  A
N34          C35   1.362       .  A
C35          N36   1.361       .  A
C35        C2262   1.485       .  S
C37          N38   1.360       .  A
C37          N42   1.358       .  A
C37        C2169   1.483   1_554  S
N38          C39   1.363       .  A
C39          N40   1.358       .  A
C39          C45   1.474       .  S
N40          C41   1.360       .  A
C41          N42   1.360       .  A
C41        C2206   1.488       .  S
C43          N44   1.363       .  A
C43          N48   1.356       .  A
C43        C2150   1.490       .  S
N44          C45   1.366       .  A
C45          N46   1.360       .  A
N46          C47   1.357       .  A
C47          N48   1.352       .  A
C47        C2113   1.477       .  S
C49          N50   1.359       .  A
C49          N54   1.352   1_455  A
C49        C2057   1.483       .  S
N50          C51   1.364       .  A
C51          N52   1.362   1_455  A
C51          C57   1.472       .  S
N52          C53   1.360       .  A
C53          N54   1.353       .  A
C53        C2094   1.477       .  S
C55          N56   1.363       .  A
C55          N60   1.355       .  A
C55        C2029   1.483       .  S
N56          C57   1.365       .  A
C57          N58   1.360       .  A
N58          C59   1.356       .  A
C59          N60   1.354       .  A
C59        C2010   1.472       .  S
C61          N62   1.355       .  A
C61          N66   1.359       .  A
C61        C1954   1.485       .  S
N62          C63   1.357       .  A
C63          N64   1.357       .  A
C63        C1973   1.476       .  S
N64          C65   1.359       .  A
C65          N66   1.363       .  A
C65          C69   1.468       .  S
C67          N68   1.362       .  A
C67          N72   1.357       .  A
C67        C1898   1.495       .  S
N68          C69   1.363       .  A
C69          N70   1.357       .  A
N70          C71   1.354       .  A
C71          N72   1.357       .  A
C71        C1926   1.481   1_545  S
C73          N74   1.360       .  A
C73          N78   1.357       .  A
C73        C1870   1.493       .  S
N74          C75   1.364       .  A
C75          N76   1.357       .  A
C75          C81   1.469       .  S
N76          C77   1.357   1_455  A
C77          N78   1.356   1_655  A
C77        C1833   1.476       .  S
C79          N80   1.363       .  A
C79          N84   1.355       .  A
C79        C1805   1.497       .  S
N80          C81   1.367       .  A
C81          N82   1.358       .  A
N82          C83   1.354       .  A
C83          N84   1.352       .  A
C83        C1786   1.470       .  S
C85          N86   1.361       .  A
C85          N90   1.358       .  A
C85        C1758   1.494       .  S
N86          C87   1.364       .  A
C87          N88   1.360       .  A
C87          C93   1.471       .  S
N88          C89   1.357       .  A
C89          N90   1.355       .  A
C89        C1721   1.484       .  S
C91          N92   1.360       .  A
C91          N96   1.356       .  A
C91        C1665   1.489       .  S
N92          C93   1.364       .  A
C93          N94   1.361       .  A
N94          C95   1.359       .  A
C95          N96   1.354       .  A
C95        C1693   1.482       .  S
C97          N98   1.358       .  A
C97         N102   1.353       .  A
C97        C1637   1.478       .  S
N98          C99   1.361       .  A
C99         N100   1.360       .  A
C99         C107   1.469       .  S
N100        C101   1.359       .  A
C101        N102   1.352       .  A
C101       C1618   1.469       .  S
C103        N104   1.356       .  A
C103        N108   1.360       .  A
C103       C1553   1.490       .  S
N104        C105   1.352       .  A
C105        N106   1.357       .  A
C105       C1590   1.483       .  S
N106        C107   1.360       .  A
C107        N108   1.363       .  A
C109        N110   1.360       .  A
C109        N114   1.357   1_556  A
C109       C1506   1.479       .  S
N110        C111   1.360   1_556  A
C111        N112   1.360       .  A
C111       C1534   1.486       .  S
N112        C113   1.361       .  A
C113        N114   1.358       .  A
C113        C117   1.469       .  S
C115        N116   1.359       .  A
C115        N120   1.355       .  A
C115       C1478   1.482       .  S
N116        C117   1.361       .  A
C117        N118   1.362       .  A
N118        C119   1.358       .  A
C119        N120   1.354       .  A
C119       C1450   1.475       .  S
C121        N122   1.355       .  A
C121        N126   1.357       .  A
C121       C1385   1.475       .  S
N122        C123   1.357       .  A
C123        N124   1.363       .  A
C123       C1422   1.487       .  S
N124        C125   1.365       .  A
C125        N126   1.361       .  A
C125        C129   1.475       .  S
C127        N128   1.361       .  A
C127        N132   1.354       .  A
C127       C1366   1.483       .  S
N128        C129   1.363       .  A
C129        N130   1.364   1_455  A
N130        C131   1.360       .  A
C131        N132   1.354   1_655  A
C131       C1329   1.489       .  S
C133        N134   1.354       .  A
C133        N138   1.366       .  A
C133       C1282   1.494       .  S
N134        C135   1.355       .  A
C135        N136   1.358       .  A
C135       C1310   1.475       .  S
N136        C137   1.360       .  A
C137        N138   1.371       .  A
C137        C141   1.481       .  S
C139        N140   1.367       .  A
C139        N144   1.358       .  A
C139       C1217   1.506       .  S
N140        C141   1.372       .  A
C141        N142   1.359       .  A
N142        C143   1.356       .  A
C143        N144   1.355       .  A
C143       C1245   1.482   1_545  S
C145        N146   1.353       .  A
C145        N150   1.358       .  A
C145       C1189   1.467       .  S
N146        C147   1.354       .  A
C147        N148   1.359       .  A
C147       C1170   1.474       .  S
N148        C149   1.362       .  A
C149        N150   1.362       .  A
C149        C153   1.471       .  S
C151        N152   1.360       .  A
C151        N156   1.359       .  A
C151       C1133   1.494       .  S
N152        C153   1.361       .  A
C153        N154   1.360       .  A
N154        C155   1.359       .  A
C155        N156   1.357       .  A
C155       C1114   1.482       .  S
C157        N158   1.354       .  A
C157        N162   1.360       .  A
C157       C1077   1.479       .  S
N158        C159   1.356       .  A
C159        N160   1.361       .  A
C159       C1049   1.482       .  S
N160        C161   1.362       .  A
C161        N162   1.363       .  A
C161        C165   1.476       .  S
C163        N164   1.363       .  A
C163        N168   1.354       .  A
C163       C1021   1.497       .  S
N164        C165   1.365       .  A
C165        N166   1.363       .  A
N166        C167   1.359       .  A
C167        N168   1.354       .  A
C167        C993   1.486   1_545  S
C169        N170   1.359       .  A
C169        N174   1.360       .  A
C169        C937   1.492       .  S
N170        C171   1.361       .  A
C171        N172   1.362       .  A
C171        C179   1.474       .  S
N172        C173   1.361       .  A
C173        N174   1.359       .  A
C173        C974   1.486       .  S
C175        N176   1.357       .  A
C175        N180   1.362       .  A
C175        C890   1.491       .  S
N176        C177   1.354       .  A
C177        N178   1.358       .  A
C177        C909   1.484       .  S
N178        C179   1.362       .  A
C179        N180   1.363       .  A
C181        N182   1.364       .  A
C181        N186   1.356       .  A
C181        C825   1.488       .  S
N182        C183   1.367       .  A
C183        N184   1.362       .  A
C183        C189   1.480       .  S
N184        C185   1.359       .  A
C185        N186   1.354       .  A
C185        C853   1.488       .  S
C187        N188   1.361       .  A
C187        N192   1.354       .  A
C187        C797   1.498       .  S
N188        C189   1.368       .  A
C189        N190   1.366       .  A
N190        C191   1.362       .  A
C191        N192   1.354       .  A
C191        C769   1.497       .  S
C193        N194   1.358   1_556  A
C193        N198   1.359       .  A
C193        C741   1.477       .  S
N194        C195   1.360       .  A
C195        N196   1.359       .  A
C195        C201   1.469       .  S
N196        C197   1.359       .  A
C197        N198   1.359   1_554  A
C197        C722   1.484       .  S
C199        N200   1.359       .  A
C199        N204   1.354       .  A
C199        C657   1.482       .  S
N200        C201   1.363       .  A
C201        N202   1.362       .  A
N202        C203   1.358       .  A
C203        N204   1.353       .  A
C203        C685   1.484       .  S
C205        N206   1.360       .  A
C205        N210   1.354       .  A
C205        C601   1.488       .  S
N206        C207   1.362       .  A
C207        N208   1.361       .  A
C207        C215   1.469       .  S
N208        C209   1.357       .  A
C209        N210   1.354       .  A
C209        C629   1.481       .  S
C211        N212   1.354       .  A
C211        N216   1.358   1_655  A
C211        C554   1.487       .  S
N212        C213   1.357       .  A
C213        N214   1.360       .  A
C213        C582   1.494       .  S
N214        C215   1.362   1_655  A
C215        N216   1.361       .  A
O217        C228   1.292       .  A
O217       Eu253   2.464       .  S
O218        C229   1.289       .  A
O218       Eu252   2.438       .  S
O219        C230   1.292       .  A
O219       Eu225   2.465       .  S
O220        C231   1.288       .  A
O220       Eu225   2.447       .  S
O221        C231   1.291       .  A
O221       Eu255   2.462       .  S
O222        C230   1.291       .  A
O222       Eu254   2.459       .  S
O223        C229   1.293       .  A
O223       Eu225   2.466       .  S
O224        C228   1.292       .  A
O224       Eu225   2.460       .  S
Eu225       O235   2.352       .  S
Eu225       O227   2.346       .  S
Eu225       O226   2.354       .  S
Eu225       O233   2.356       .  S
O226       Eu255   2.339       .  S
O226       Eu252   2.351       .  S
O227       Eu253   2.352       .  S
O227       Eu254   2.350       .  S
C228       C2533   1.492       .  S
C229       C1842   1.481       .  S
C230       C1674   1.485       .  S
C231        C573   1.467       .  S
H232        O233   0.964       .  S
O233       Eu254   2.347       .  S
O233       Eu252   2.354       .  S
H234        O235   0.965       .  S
O235       Eu253   2.352       .  S
O235       Eu255   2.353       .  S
O236        C259   1.293       .  A
O236       Eu252   2.460       .  S
O237        C260   1.292       .  A
O237       Eu253   2.456       .  S
O238        C261   1.291       .  A
O238       Eu254   2.466       .  S
O239        C262   1.294       .  A
O239       Eu255   2.473       .  S
O240        C263   1.290       .  A
O240       Eu255   2.450       .  S
O241        C264   1.289       .  A
O241       Eu254   2.437       .  S
O242        C265   1.293       .  A
O242       Eu256   2.465       .  S
O243        C266   1.295       .  A
O243       Eu256   2.478       .  S
O244        C265   1.290       .  A
O244       Eu254   2.451       .  S
O245        C266   1.289       .  A
O245       Eu255   2.440       .  S
O246        C261   1.290       .  A
O246       Eu252   2.445       .  S
O247        C264   1.293       .  A
O247       Eu253   2.476       .  S
O248        C263   1.293       .  A
O248       Eu253   2.469       .  S
O249        C262   1.289       .  A
O249       Eu252   2.447       .  S
O250        C259   1.293       .  A
O250       Eu256   2.473       .  S
O251        C260   1.290       .  A
O251       Eu256   2.448       .  S
Eu252       O270   2.343       .  S
Eu252       O258   2.341       .  S
Eu253       O257   2.355       .  S
Eu253       O268   2.355       .  S
Eu254       O268   2.359       .  S
Eu254       O258   2.351       .  S
Eu255       O257   2.355       .  S
Eu255       O270   2.354       .  S
Eu256       O257   2.353       .  S
Eu256       O268   2.364       .  S
Eu256       O270   2.352       .  S
Eu256       O258   2.352       .  S
C259       C2178   1.500       .  S
C260       C1777   1.486       .  S
C261       C2346   1.493       .  S
C262        C750   1.487       .  S
C263       C2421   1.481       .  S
C264       C1086   1.491       .  S
C265        C638   1.481       .  S
C266       C1497   1.486       .  S
H267        O268   0.963       .  S
H269        O270   0.964       .  S
O271        C282   1.295       .  A
O271       Eu307   2.477   1_556  S
O272        C283   1.291       .  A
O272       Eu306   2.457   1_545  S
O273        C284   1.292       .  A
O273       Eu279   2.467       .  S
O274        C285   1.291       .  A
O274       Eu279   2.459   1_546  S
O275        C285   1.291       .  A
O275       Eu309   2.457   1_546  S
O276        C284   1.290       .  A
O276       Eu308   2.448       .  S
O277        C283   1.292       .  A
O277       Eu279   2.459   1_545  S
O278        C282   1.291       .  A
O278       Eu279   2.456   1_556  S
Eu279       O289   2.358   1_554  S
Eu279       O281   2.347       .  S
Eu279       O280   2.350       .  S
Eu279       O287   2.363       .  S
O280       Eu309   2.348       .  S
O280       Eu306   2.357       .  S
O281       Eu307   2.354       .  S
O281       Eu308   2.350       .  S
C282       C2374   1.491       .  S
C283        C713   1.479       .  S
C284       C1441   1.490       .  S
C285        C545   1.478       .  S
H286        O287   0.965       .  S
O287       Eu308   2.353       .  S
O287       Eu306   2.359       .  S
H288        O289   0.964       .  S
O289       Eu307   2.356   1_556  S
O289       Eu309   2.350   1_556  S
O290        C313   1.293   1_545  A
O290       Eu306   2.471   1_545  S
O291        C314   1.295       .  A
O291       Eu307   2.478       .  S
O292        C315   1.292       .  A
O292       Eu308   2.465       .  S
O293        C316   1.291       .  A
O293       Eu309   2.463   1_445  S
O294        C317   1.292       .  A
O294       Eu309   2.463   1_556  S
O295        C318   1.289       .  A
O295       Eu308   2.448       .  S
O296        C319   1.296       .  A
O296       Eu310   2.481       .  S
O297        C320   1.295       .  A
O297       Eu310   2.478   1_455  S
O298        C319   1.289       .  A
O298       Eu308   2.452       .  S
O299        C320   1.289       .  A
O299       Eu309   2.444   1_455  S
O300        C315   1.294       .  A
O300       Eu306   2.476       .  S
O301        C318   1.292       .  A
O301       Eu307   2.461       .  S
O302        C317   1.293       .  A
O302       Eu307   2.472   1_556  S
O303        C316   1.292   1_655  A
O303       Eu306   2.453   1_545  S
O304        C313   1.292       .  A
O304       Eu310   2.456       .  S
O305        C314   1.289       .  A
O305       Eu310   2.446       .  S
Eu306       O324   2.358       .  S
Eu306       O312   2.350       .  S
Eu307       O311   2.350       .  S
Eu307       O322   2.360       .  S
Eu308       O322   2.355       .  S
Eu308       O312   2.350       .  S
Eu309       O311   2.350       .  S
Eu309       O324   2.358       .  S
Eu310       O311   2.354       .  S
Eu310       O322   2.357       .  S
Eu310       O324   2.356       .  S
Eu310       O312   2.351       .  S
C313       C1945   1.493   1_655  S
C314        C694   1.488       .  S
C315       C1226   1.491       .  S
C316       C2122   1.493       .  S
C317       C1814   1.484       .  S
C318       C2197   1.476       .  S
C319        C806   1.486       .  S
C320       C1525   1.492       .  S
H321        O322   0.965       .  S
H323        O324   0.964       .  S
O325        C336   1.290       .  A
O325       Eu361   2.454       .  S
O326        C337   1.293       .  A
O326       Eu360   2.462       .  S
O327        C338   1.292       .  A
O327       Eu333   2.465       .  S
O328        C339   1.293       .  A
O328       Eu333   2.469       .  S
O329        C339   1.291       .  A
O329       Eu363   2.452       .  S
O330        C338   1.291       .  A
O330       Eu362   2.459       .  S
O331        C337   1.291       .  A
O331       Eu333   2.459       .  S
O332        C336   1.294       .  A
O332       Eu333   2.470       .  S
Eu333       O343   2.343       .  S
Eu333       O335   2.344       .  S
Eu333       O334   2.360       .  S
Eu333       O341   2.361       .  S
O334       Eu363   2.348       .  S
O334       Eu360   2.354       .  S
O335       Eu361   2.348       .  S
O335       Eu362   2.340       .  S
C336       C2318   1.486       .  S
C337       C1105   1.494       .  S
C338        C946   1.485       .  S
C339       C1338   1.479       .  S
H340        O341   0.964       .  S
O341       Eu362   2.357       .  S
O341       Eu360   2.368       .  S
H342        O343   0.963       .  S
O343       Eu361   2.355       .  S
O343       Eu363   2.358       .  S
O344        C367   1.294       .  A
O344       Eu360   2.477       .  S
O345        C368   1.293       .  A
O345       Eu361   2.470       .  S
O346        C369   1.291       .  A
O346       Eu362   2.460       .  S
O347        C370   1.295       .  A
O347       Eu363   2.475       .  S
O348        C371   1.291       .  A
O348       Eu363   2.458       .  S
O349        C372   1.290       .  A
O349       Eu362   2.455       .  S
O350        C373   1.294       .  A
O350       Eu364   2.472       .  S
O351        C374   1.290       .  A
O351       Eu364   2.454       .  S
O352        C373   1.289       .  A
O352       Eu362   2.447       .  S
O353        C374   1.293       .  A
O353       Eu363   2.467       .  S
O354        C369   1.292       .  A
O354       Eu360   2.454       .  S
O355        C372   1.291       .  A
O355       Eu361   2.458       .  S
O356        C371   1.290       .  A
O356       Eu361   2.445       .  S
O357        C370   1.293       .  A
O357       Eu360   2.470       .  S
O358        C367   1.289       .  A
O358       Eu364   2.452       .  S
O359        C368   1.289       .  A
O359       Eu364   2.446       .  S
Eu360       O378   2.349       .  S
Eu360       O366   2.350       .  S
Eu361       O365   2.348       .  S
Eu361       O376   2.354       .  S
Eu362       O376   2.365       .  S
Eu362       O366   2.354       .  S
Eu363       O365   2.355       .  S
Eu363       O378   2.349       .  S
Eu364       O365   2.351       .  S
Eu364       O376   2.357       .  S
Eu364       O378   2.355       .  S
Eu364       O366   2.349       .  S
C367       C1889   1.476       .  S
C368       C1161   1.478       .  S
C369       C2001   1.481       .  S
C370       C1273   1.499       .  S
C371       C2085   1.481       .  S
C372       C1646   1.475       .  S
C373       C1413   1.486       .  S
C374        C834   1.489       .  S
H375        O376   0.964       .  S
H377        O378   0.964       .  S
O379        C390   1.290       .  A
O379       Eu415   2.455       .  S
O380        C391   1.291       .  A
O380       Eu414   2.454       .  S
O381        C392   1.291       .  A
O381       Eu387   2.459       .  S
O382        C393   1.291       .  A
O382       Eu387   2.453       .  S
O383        C393   1.293       .  A
O383       Eu417   2.475       .  S
O384        C392   1.290       .  A
O384       Eu416   2.451       .  S
O385        C391   1.290       .  A
O385       Eu387   2.453       .  S
O386        C390   1.293       .  A
O386       Eu387   2.470       .  S
Eu387       O397   2.352       .  S
Eu387       O389   2.342       .  S
Eu387       O388   2.353       .  S
Eu387       O395   2.363       .  S
O388       Eu417   2.348       .  S
O388       Eu414   2.351       .  S
O389       Eu415   2.347       .  S
O389       Eu416   2.354       .  S
C390       C2505   1.479       .  S
C391       C1861   1.476       .  S
C392       C1002   1.476       .  S
C393       C2402   1.483       .  S
H394        O395   0.965       .  S
O395       Eu416   2.360       .  S
O395       Eu414   2.352       .  S
H396        O397   0.964       .  S
O397       Eu415   2.347       .  S
O397       Eu417   2.360       .  S
O398        C421   1.289       .  A
O398       Eu414   2.448       .  S
O399        C422   1.290       .  A
O399       Eu415   2.448       .  S
O400        C423   1.291       .  A
O400       Eu416   2.463       .  S
O401        C424   1.294       .  A
O401       Eu417   2.469       .  S
O402        C425   1.291       .  A
O402       Eu417   2.460       .  S
O403        C426   1.290       .  A
O403       Eu416   2.448       .  S
O404        C427   1.291       .  A
O404       Eu418   2.455       .  S
O405        C428   1.291       .  A
O405       Eu418   2.458       .  S
O406        C427   1.292       .  A
O406       Eu416   2.470       .  S
O407        C428   1.293       .  A
O407       Eu417   2.462       .  S
O408        C423   1.291       .  A
O408       Eu414   2.451       .  S
O409        C426   1.293       .  A
O409       Eu415   2.471       .  S
O410        C425   1.294       .  A
O410       Eu415   2.466       .  S
O411        C424   1.287       .  A
O411       Eu414   2.439       .  S
O412        C421   1.290       .  A
O412       Eu418   2.447       .  S
O413        C422   1.289       .  A
O413       Eu418   2.445       .  S
Eu414       O432   2.355       .  S
Eu414       O420   2.342       .  S
Eu415       O419   2.343       .  S
Eu415       O430   2.364       .  S
Eu416       O430   2.362       .  S
Eu416       O420   2.339       .  S
Eu417       O419   2.349       .  S
Eu417       O432   2.356       .  S
Eu418       O419   2.343       .  S
Eu418       O430   2.357       .  S
Eu418       O432   2.356       .  S
Eu418       O420   2.340       .  S
C421       C2458   1.476       .  S
C422       C1562   1.467       .  S
C423       C1702   1.483       .  S
C424        C610   1.475       .  S
C425       C1730   1.493       .  S
C426        C881   1.478       .  S
C427       C2225   1.491       .  S
C428       C1058   1.492       .  S
H429        O430   0.966       .  S
H431        O432   0.965       .  S
O433        C444   1.292       .  A
O433       Eu469   2.463       .  S
O434        C445   1.291       .  A
O434       Eu468   2.452       .  S
O435        C446   1.293       .  A
O435       Eu441   2.463       .  S
O436        C447   1.291       .  A
O436       Eu441   2.457       .  S
O437        C447   1.294       .  A
O437       Eu471   2.474       .  S
O438        C446   1.289       .  A
O438       Eu470   2.449       .  S
O439        C445   1.291       .  A
O439       Eu441   2.455       .  S
O440        C444   1.293       .  A
O440       Eu441   2.470       .  S
Eu441       O451   2.357       .  S
Eu441       O443   2.343       .  S
Eu441       O442   2.349       .  S
Eu441       O449   2.353       .  S
O442       Eu471   2.346       .  S
O442       Eu468   2.346       .  S
O443       Eu469   2.349       .  S
O443       Eu470   2.347       .  S
C444       C2141   1.482       .  S
C445       C1254   1.482       .  S
C446       C1469   1.487       .  S
C447        C862   1.477       .  S
H448        O449   0.970       .  S
O449       Eu470   2.358       .  S
O449       Eu468   2.355       .  S
H450        O451   0.972       .  S
O451       Eu469   2.352       .  S
O451       Eu471   2.359       .  S
O452        C475   1.292       .  A
O452       Eu468   2.459       .  S
O453        C476   1.292       .  A
O453       Eu469   2.468       .  S
O454        C477   1.290       .  A
O454       Eu470   2.451       .  S
O455        C478   1.291       .  A
O455       Eu471   2.452       .  S
O456        C479   1.292       .  A
O456       Eu471   2.462       .  S
O457        C480   1.293       .  A
O457       Eu470   2.470       .  S
O458        C481   1.290       .  A
O458       Eu472   2.456       .  S
O459        C482   1.289       .  A
O459       Eu472   2.441       .  S
O460        C481   1.290       .  A
O460       Eu470   2.453       .  S
O461        C482   1.294       .  A
O461       Eu471   2.474       .  S
O462        C477   1.291       .  A
O462       Eu468   2.456       .  S
O463        C480   1.288       .  A
O463       Eu469   2.439       .  S
O464        C479   1.288       .  A
O464       Eu469   2.445       .  S
O465        C478   1.291       .  A
O465       Eu468   2.462       .  S
O466        C475   1.293       .  A
O466       Eu472   2.472       .  S
O467        C476   1.289       .  A
O467       Eu472   2.442       .  S
Eu468       O486   2.352       .  S
Eu468       O474   2.348       .  S
Eu469       O473   2.346       .  S
Eu469       O484   2.357       .  S
Eu470       O484   2.353       .  S
Eu470       O474   2.352       .  S
Eu471       O473   2.348       .  S
Eu471       O486   2.363       .  S
Eu472       O473   2.353       .  S
Eu472       O484   2.358       .  S
Eu472       O486   2.356       .  S
Eu472       O474   2.342       .  S
C475       C2038   1.494       .  S
C476       C1301   1.477       .  S
C477       C1917   1.478       .  S
C478       C1198   1.493       .  S
C479       C1982   1.489       .  S
C480        C666   1.481       .  S
C481        C778   1.468       .  S
C482       C1357   1.482       .  S
H483        O484   0.988       .  S
H485        O486   0.971       .  S
O487        C498   1.290       .  A
O487       Eu523   2.445       .  S
O488        C499   1.289       .  A
O488       Eu522   2.450       .  S
O489        C500   1.293       .  A
O489       Eu495   2.466       .  S
O490        C501   1.293       .  A
O490       Eu495   2.469       .  S
O491        C501   1.290       .  A
O491       Eu525   2.452       .  S
O492        C500   1.292       .  A
O492       Eu524   2.463       .  S
O493        C499   1.292       .  A
O493       Eu495   2.460       .  S
O494        C498   1.293       .  A
O494       Eu495   2.473       .  S
Eu495       O505   2.365       .  S
Eu495       O497   2.347       .  S
Eu495       O496   2.349       .  S
Eu495       O503   2.358       .  S
O496       Eu525   2.347       .  S
O496       Eu522   2.344       .  S
O497       Eu523   2.350       .  S
O497       Eu524   2.350       .  S
C498       C2477   1.481       .  S
C499       C1581   1.474       .  S
C500        C965   1.490       .  S
C501       C1749   1.481       .  S
H502        O503   0.965       .  S
O503       Eu524   2.356       .  S
O503       Eu522   2.360       .  S
H504        O505   0.968       .  S
O505       Eu523   2.354       .  S
O505       Eu525   2.361       .  S
O506        C529   1.291       .  A
O506       Eu522   2.453       .  S
O507        C530   1.290   1_655  A
O507       Eu523   2.455   1_545  S
O508        C531   1.293       .  A
O508       Eu524   2.471       .  S
O509        C532   1.290       .  A
O509       Eu525   2.457       .  S
O510        C533   1.289       .  A
O510       Eu525   2.448       .  S
O511        C534   1.294       .  A
O511       Eu524   2.476   1_545  S
O512        C535   1.292       .  A
O512       Eu526   2.464   1_545  S
O513        C536   1.292       .  A
O513       Eu526   2.468   1_455  S
O514        C535   1.292       .  A
O514       Eu524   2.457   1_545  S
O515        C536   1.292   1_655  A
O515       Eu525   2.458       .  S
O516        C531   1.291       .  A
O516       Eu522   2.461       .  S
O517        C534   1.289       .  A
O517       Eu523   2.446   1_545  S
O518        C533   1.293       .  A
O518       Eu523   2.472       .  S
O519        C532   1.293       .  A
O519       Eu522   2.465       .  S
O520        C529   1.291       .  A
O520       Eu526   2.457       .  S
O521        C530   1.291       .  A
O521       Eu526   2.449   1_445  S
Eu522       O540   2.353       .  S
Eu522       O528   2.354       .  S
Eu523       O527   2.348       .  S
Eu523       O538   2.353       .  S
Eu524       O538   2.349       .  S
Eu524       O528   2.356       .  S
Eu525       O527   2.348       .  S
Eu525       O540   2.353       .  S
Eu526       O527   2.353       .  S
Eu526       O538   2.352       .  S
Eu526       O540   2.358       .  S
Eu526       O528   2.354       .  S
C529       C2066   1.481       .  S
C530       C1609   1.484       .  S
C531       C1142   1.476       .  S
C532       C2281   1.489       .  S
C533       C1030   1.481   1_655  S
C534       C2253   1.485       .  S
C535       C1394   1.489       .  S
C536        C918   1.496       .  S
H537        O538   0.964   1_545  S
H539        O540   0.966       .  S
C541        C542   1.403       .  A
C541        C546   1.399       .  A
C541        H551   1.084       .  S
C542        C547   1.479       .  S
C542        C543   1.408   1_655  A
C543        C544   1.401   1_455  A
C543        N548   1.429       .  S
C544        C545   1.404       .  A
C544        H549   1.081   1_655  S
C545        C546   1.411       .  A
C546        N550   1.430   1_545  S
C547        C552   1.410   1_655  A
C547        C556   1.397       .  A
N548        O563   1.262       .  A
N548        O564   1.262       .  A
N550        O561   1.262       .  A
N550        O562   1.262       .  A
C552        C553   1.404       .  A
C552        N557   1.429       .  S
C553        C554   1.408   1_455  A
C553        H558   1.083       .  S
C554        C555   1.417       .  A
C555        C556   1.396       .  A
C555        N559   1.431       .  S
C556        H560   1.084       .  S
N557        O567   1.262       .  A
N557        O568   1.262       .  A
N559        O565   1.262       .  A
N559        O566   1.262       .  A
C569        C570   1.403       .  A
C569        C574   1.402       .  A
C569        H579   1.084       .  S
C570        C575   1.480       .  S
C570        C571   1.412       .  A
C571        C572   1.398       .  A
C571        N576   1.431       .  S
C572        C573   1.398       .  A
C572        H577   1.084       .  S
C573        C574   1.410       .  A
C574        N578   1.430       .  S
C575        C580   1.406       .  A
C575        C584   1.402       .  A
N576        O591   1.262       .  A
N576        O592   1.262       .  A
N578        O589   1.262       .  A
N578        O590   1.262       .  A
C580        C581   1.394       .  A
C580        N585   1.431       .  S
C581        C582   1.408       .  A
C581        H586   1.081       .  S
C582        C583   1.419       .  A
C583        C584   1.407       .  A
C583        N587   1.429       .  S
C584        H588   1.084       .  S
N585        O595   1.262       .  A
N585        O596   1.262       .  A
N587        O593   1.262       .  A
N587        O594   1.262       .  A
C597        C598   1.399       .  A
C597        C602   1.395       .  A
C597        H607   1.084       .  S
C598        C603   1.480       .  S
C598        C599   1.407       .  A
C599        C600   1.404       .  A
C599        N604   1.428       .  S
C600        C601   1.409       .  A
C600        H605   1.083       .  S
C601        C602   1.417       .  A
C602        N606   1.430       .  S
C603        C608   1.408       .  A
C603        C612   1.404       .  A
N604        O619   1.262       .  A
N604        O620   1.262       .  A
N606        O617   1.262       .  A
N606        O618   1.262       .  A
C608        C609   1.394       .  A
C608        N613   1.430       .  S
C609        C610   1.399       .  A
C609        H614   1.081       .  S
C610        C611   1.414       .  A
C611        C612   1.404       .  A
C611        N615   1.430       .  S
C612        H616   1.084       .  S
N613        O623   1.262       .  A
N613        O624   1.262       .  A
N615        O621   1.262       .  A
N615        O622   1.262       .  A
C625        C626   1.404       .  A
C625        C630   1.405       .  A
C625        H635   1.084       .  S
C626        C631   1.479       .  S
C626        C627   1.406       .  A
C627        C628   1.394       .  A
C627        N632   1.430       .  S
C628        C629   1.405       .  A
C628        H633   1.084       .  S
C629        C630   1.414       .  A
C630        N634   1.429       .  S
C631        C636   1.407       .  A
C631        C640   1.402       .  A
N632        O647   1.262       .  A
N632        O648   1.262       .  A
N634        O645   1.262       .  A
N634        O646   1.262       .  A
C636        C637   1.401       .  A
C636        N641   1.429       .  S
C637        C638   1.404       .  A
C637        H642   1.078       .  S
C638        C639   1.412       .  A
C639        C640   1.397       .  A
C639        N643   1.429       .  S
C640        H644   1.084       .  S
N641        O651   1.262       .  A
N641        O652   1.262       .  A
N643        O649   1.262       .  A
N643        O650   1.262       .  A
C653        C654   1.405       .  A
C653        C658   1.407   1_455  A
C653        H663   1.084       .  S
C654        C659   1.479       .  S
C654        C655   1.406   1_455  A
C655        C656   1.392       .  A
C655        N660   1.430       .  S
C656        C657   1.404       .  A
C656        H661   1.084       .  S
C657        C658   1.414       .  A
C658        N662   1.429       .  S
C659        C664   1.406       .  A
C659        C668   1.403       .  A
N660        O675   1.262   1_655  A
N660        O676   1.261       .  A
N662        O673   1.262       .  A
N662        O674   1.262   1_655  A
C664        C665   1.400       .  A
C664        N669   1.429       .  S
C665        C666   1.407       .  A
C665        H670   1.082       .  S
C666        C667   1.411       .  A
C667        C668   1.398       .  A
C667        N671   1.429       .  S
C668        H672   1.084       .  S
N669        O679   1.262       .  A
N669        O680   1.262   1_455  A
N671        O677   1.261       .  A
N671        O678   1.262       .  A
C681        C682   1.407       .  A
C681        C686   1.404       .  A
C681        H691   1.083       .  S
C682        C687   1.490       .  S
C682        C683   1.411       .  A
C683        C684   1.396       .  A
C683        N688   1.430       .  S
C684        C685   1.405       .  A
C684        H689   1.084       .  S
C685        C686   1.412       .  A
C686        N690   1.429       .  S
C687        C692   1.411       .  A
C687        C696   1.404       .  A
N688        O703   1.262       .  A
N688        O704   1.262   1_655  A
N690        O701   1.262       .  A
N690        O702   1.262       .  A
C692        C693   1.401       .  A
C692        N697   1.429       .  S
C693        C694   1.404       .  A
C693        H698   1.080       .  S
C694        C695   1.416       .  A
C695        C696   1.400       .  A
C695        N699   1.430       .  S
C696        H700   1.083       .  S
N697        O707   1.262   1_554  A
N697        O708   1.262   1_554  A
N699        O705   1.262       .  A
N699        O706   1.262       .  A
C709        C710   1.401       .  A
C709        C714   1.399       .  A
C709        H719   1.084   1_554  S
C710        C715   1.479       .  S
C710        C711   1.410       .  A
C711        C712   1.402       .  A
C711        N716   1.430       .  S
C712        C713   1.405       .  A
C712        H717   1.084       .  S
C713        C714   1.412       .  A
C714        N718   1.430   1_554  S
C715        C720   1.409       .  A
C715        C724   1.400       .  A
N716        O731   1.262       .  A
N716        O732   1.262       .  A
N718        O729   1.262       .  A
N718        O730   1.262       .  A
C720        C721   1.403       .  A
C720        N725   1.429       .  S
C721        C722   1.407       .  A
C721        H726   1.084       .  S
C722        C723   1.414       .  A
C723        C724   1.399       .  A
C723        N727   1.429       .  S
C724        H728   1.084       .  S
N725        O735   1.262       .  A
N725        O736   1.262       .  A
N727        O733   1.262   1_554  A
N727        O734   1.262       .  A
C737        C738   1.401       .  A
C737        C742   1.398       .  A
C737        H747   1.084       .  S
C738        C743   1.478       .  S
C738        C739   1.410       .  A
C739        C740   1.404       .  A
C739        N744   1.429       .  S
C740        C741   1.404       .  A
C740        H745   1.084       .  S
C741        C742   1.409       .  A
C742        N746   1.429       .  S
C743        C748   1.407       .  A
C743        C752   1.401       .  A
N744        O759   1.262       .  A
N744        O760   1.262       .  A
N746        O757   1.262       .  A
N746        O758   1.262       .  A
C748        C749   1.403       .  A
C748        N753   1.429       .  S
C749        C750   1.410       .  A
C749        H754   1.084       .  S
C750        C751   1.414       .  A
C751        C752   1.399       .  A
C751        N755   1.429       .  S
C752        H756   1.084       .  S
N753        O763   1.262       .  A
N753        O764   1.262       .  A
N755        O761   1.262       .  A
N755        O762   1.262       .  A
C765        C766   1.401       .  A
C765        C770   1.406       .  A
C765        H775   1.084       .  S
C766        C771   1.481       .  S
C766        C767   1.406       .  A
C767        C768   1.397       .  A
C767        N772   1.431       .  S
C768        C769   1.411       .  A
C768        H773   1.083       .  S
C769        C770   1.416       .  A
C770        N774   1.426       .  S
C771        C776   1.410   1_655  A
C771        C780   1.405       .  A
N772        O787   1.262       .  A
N772        O788   1.262       .  A
N774        O785   1.261       .  A
N774        O786   1.262       .  A
C776        C777   1.397       .  A
C776        N781   1.429       .  S
C777        C778   1.399       .  A
C777        H782   1.084       .  S
C778        C779   1.409   1_455  A
C779        C780   1.404       .  A
C779        N783   1.430       .  S
C780        H784   1.084       .  S
N781        O791   1.262       .  A
N781        O792   1.262       .  A
N783        O789   1.262   1_655  A
N783        O790   1.262       .  A
C793        C794   1.407       .  A
C793        C798   1.412       .  A
C793        H803   1.083       .  S
C794        C799   1.491       .  S
C794        C795   1.407       .  A
C795        C796   1.395       .  A
C795        N800   1.430       .  S
C796        C797   1.409       .  A
C796        H801   1.083       .  S
C797        C798   1.417       .  A
C798        N802   1.429       .  S
C799        C804   1.410       .  A
C799        C808   1.403       .  A
N800        O815   1.262       .  A
N800        O816   1.262       .  A
N802        O813   1.262       .  A
N802        O814   1.262       .  A
C804        C805   1.408       .  A
C804        N809   1.429       .  S
C805        C806   1.408       .  A
C805        H810   1.084       .  S
C806        C807   1.410       .  A
C807        C808   1.400       .  A
C807        N811   1.430       .  S
C808        H812   1.084       .  S
N809        O819   1.262       .  A
N809        O820   1.262       .  A
N811        O817   1.262       .  A
N811        O818   1.262       .  A
C821        C822   1.404       .  A
C821        C826   1.408       .  A
C821        H831   1.084       .  S
C822        C827   1.485       .  S
C822        C823   1.407       .  A
C823        C824   1.398       .  A
C823        N828   1.430       .  S
C824        C825   1.407       .  A
C824        H829   1.083       .  S
C825        C826   1.414       .  A
C826        N830   1.429       .  S
C827        C832   1.408       .  A
C827        C836   1.402       .  A
N828        O843   1.262       .  A
N828        O844   1.262       .  A
N830        O841   1.261       .  A
N830        O842   1.262       .  A
C832        C833   1.402       .  A
C832        N837   1.428       .  S
C833        C834   1.408       .  A
C833        H838   1.084       .  S
C834        C835   1.416       .  A
C835        C836   1.400       .  A
C835        N839   1.430       .  S
C836        H840   1.084       .  S
N837        O847   1.262       .  A
N837        O848   1.262       .  A
N839        O845   1.262       .  A
N839        O846   1.262       .  A
C849        C850   1.397       .  A
C849        C854   1.398       .  A
C849        H859   1.084       .  S
C850        C855   1.478       .  S
C850        C851   1.408       .  A
C851        C852   1.404       .  A
C851        N856   1.428       .  S
C852        C853   1.407       .  A
C852        H857   1.084       .  S
C853        C854   1.417       .  A
C854        N858   1.429       .  S
C855        C860   1.408       .  A
C855        C864   1.401       .  A
N856        O871   1.262       .  A
N856        O872   1.262       .  A
N858        O869   1.262       .  A
N858        O870   1.262       .  A
C860        C861   1.403       .  A
C860        N865   1.428       .  S
C861        C862   1.405       .  A
C861        H866   1.084       .  S
C862        C863   1.411       .  A
C863        C864   1.401       .  A
C863        N867   1.429       .  S
C864        H868   1.084       .  S
N865        O875   1.262       .  A
N865        O876   1.261       .  A
N867        O873   1.261       .  A
N867        O874   1.262       .  A
C877        C878   1.403       .  A
C877        C882   1.405       .  A
C877        H887   1.084       .  S
C878        C883   1.478       .  S
C878        C879   1.408       .  A
C879        C880   1.397       .  A
C879        N884   1.431       .  S
C880        C881   1.401       .  A
C880        H885   1.079       .  S
C881        C882   1.411       .  A
C882        N886   1.429       .  S
C883        C888   1.406       .  A
C883        C892   1.401       .  A
N884        O899   1.262       .  A
N884        O900   1.262       .  A
N886        O897   1.262       .  A
N886        O898   1.262       .  A
C888        C889   1.397       .  A
C888        N893   1.430       .  S
C889        C890   1.408       .  A
C889        H894   1.082       .  S
C890        C891   1.416       .  A
C891        C892   1.404       .  A
C891        N895   1.428       .  S
C892        H896   1.084       .  S
N893        O903   1.262       .  A
N893        O904   1.262       .  A
N895        O901   1.262       .  A
N895        O902   1.262       .  A
C905        C906   1.402       .  A
C905        C910   1.398       .  A
C905        H915   1.084       .  S
C906        C911   1.488       .  S
C906        C907   1.411       .  A
C907        C908   1.404       .  A
C907        N912   1.429       .  S
C908        C909   1.406       .  A
C908        H913   1.084       .  S
C909        C910   1.414       .  A
C910        N914   1.430       .  S
C911        C916   1.410       .  A
C911        C920   1.402       .  A
N912        O927   1.262       .  A
N912        O928   1.262       .  A
N914        O925   1.262       .  A
N914        O926   1.262       .  A
C916        C917   1.397       .  A
C916        N921   1.430       .  S
C917        C918   1.408       .  A
C917        H922   1.083       .  S
C918        C919   1.418       .  A
C919        C920   1.404       .  A
C919        N923   1.428       .  S
C920        H924   1.084       .  S
N921        O931   1.262       .  A
N921        O932   1.262       .  A
N923        O929   1.261   1_565  A
N923        O930   1.261       .  A
C933        C934   1.402       .  A
C933        C938   1.406       .  A
C933        H943   1.084       .  S
C934        C939   1.482       .  S
C934        C935   1.405       .  A
C935        C936   1.398   1_545  A
C935        N940   1.429       .  S
C936        C937   1.407       .  A
C936        H941   1.082       .  S
C937        C938   1.418   1_565  A
C938        N942   1.429       .  S
C939        C944   1.407       .  A
C939        C948   1.403       .  A
N940        O955   1.262       .  A
N940        O956   1.262   1_545  A
N942        O953   1.262       .  A
N942        O954   1.262       .  A
C944        C945   1.402       .  A
C944        N949   1.429       .  S
C945        C946   1.406       .  A
C945        H950   1.081       .  S
C946        C947   1.413       .  A
C947        C948   1.402       .  A
C947        N951   1.430       .  S
C948        H952   1.084       .  S
N949        O959   1.262       .  A
N949        O960   1.262       .  A
N951        O957   1.262       .  A
N951        O958   1.262       .  A
C961        C962   1.400       .  A
C961        C966   1.400       .  A
C961        H971   1.084       .  S
C962        C967   1.483       .  S
C962        C963   1.409       .  A
C963        C964   1.404       .  A
C963        N968   1.429       .  S
C964        C965   1.409       .  A
C964        H969   1.084       .  S
C965        C966   1.416       .  A
C966        N970   1.429       .  S
C967        C972   1.409       .  A
C967        C976   1.400       .  A
N968        O983   1.262       .  A
N968        O984   1.261       .  A
N970        O981   1.262       .  A
N970        O982   1.262   1_565  A
C972        C973   1.405       .  A
C972        N977   1.429       .  S
C973        C974   1.406       .  A
C973        H978   1.084       .  S
C974        C975   1.414       .  A
C975        C976   1.401       .  A
C975        N979   1.429       .  S
C976        H980   1.084       .  S
N977        O987   1.262       .  A
N977        O988   1.262       .  A
N979        O985   1.262       .  A
N979        O986   1.262       .  A
C989        C990   1.402       .  A
C989        C994   1.404       .  A
C989        H999   1.084       .  S
C990        C995   1.480       .  S
C990        C991   1.406       .  A
C991        C992   1.396       .  A
C991        N996   1.430       .  S
C992        C993   1.407       .  A
C992        H997   1.083       .  S
C993        C994   1.414       .  A
C994        N998   1.427       .  S
C995       C1000   1.408       .  A
C995       C1004   1.403       .  A
N996       O1011   1.262       .  A
N996       O1012   1.262       .  A
N998       O1009   1.262   1_565  A
N998       O1010   1.262       .  A
C1000      C1001   1.400       .  A
C1000      N1005   1.429       .  S
C1001      C1002   1.405       .  A
C1001      H1006   1.084       .  S
C1002      C1003   1.411       .  A
C1003      C1004   1.399       .  A
C1003      N1007   1.431       .  S
C1004      H1008   1.084       .  S
N1005      O1015   1.262       .  A
N1005      O1016   1.262       .  A
N1007      O1013   1.262       .  A
N1007      O1014   1.262       .  A
C1017      C1018   1.400   1_565  A
C1017      C1022   1.396       .  A
C1017      H1027   1.084       .  S
C1018      C1023   1.491       .  S
C1018      C1019   1.411       .  A
C1019      C1020   1.408       .  A
C1019      N1024   1.428       .  S
C1020      C1021   1.409       .  A
C1020      H1025   1.083       .  S
C1021      C1022   1.421   1_545  A
C1022      N1026   1.430       .  S
C1023      C1028   1.414   1_545  A
C1023      C1032   1.406       .  A
N1024      O1039   1.262       .  A
N1024      O1040   1.261       .  A
N1026      O1037   1.262       .  A
N1026      O1038   1.262       .  A
C1028      C1029   1.398       .  A
C1028      N1033   1.430       .  S
C1029      C1030   1.402       .  A
C1029      H1034   1.084       .  S
C1030      C1031   1.410   1_565  A
C1031      C1032   1.406       .  A
C1031      N1035   1.428   1_455  S
C1032      H1036   1.083       .  S
N1033      O1043   1.262       .  A
N1033      O1044   1.262   1_565  A
N1035      O1041   1.262   1_545  A
N1035      O1042   1.262       .  A
C1045      C1046   1.403       .  A
C1045      C1050   1.398       .  A
C1045      H1055   1.084       .  S
C1046      C1051   1.487       .  S
C1046      C1047   1.411       .  A
C1047      C1048   1.403       .  A
C1047      N1052   1.428       .  S
C1048      C1049   1.404       .  A
C1048      H1053   1.084       .  S
C1049      C1050   1.413       .  A
C1050      N1054   1.430       .  S
C1051      C1056   1.410       .  A
C1051      C1060   1.403       .  A
N1052      O1067   1.262       .  A
N1052      O1068   1.262       .  A
N1054      O1065   1.262       .  A
N1054      O1066   1.262       .  A
C1056      C1057   1.397       .  A
C1056      N1061   1.430       .  S
C1057      C1058   1.406       .  A
C1057      H1062   1.084       .  S
C1058      C1059   1.418       .  A
C1059      C1060   1.404       .  A
C1059      N1063   1.429       .  S
C1060      H1064   1.083       .  S
N1061      O1071   1.262       .  A
N1061      O1072   1.262       .  A
N1063      O1069   1.262       .  A
N1063      O1070   1.262       .  A
C1073      C1074   1.400       .  A
C1073      C1078   1.402       .  A
C1073      H1083   1.084       .  S
C1074      C1079   1.481       .  S
C1074      C1075   1.410       .  A
C1075      C1076   1.401       .  A
C1075      N1080   1.432       .  S
C1076      C1077   1.404       .  A
C1076      H1081   1.084       .  S
C1077      C1078   1.412       .  A
C1078      N1082   1.429       .  S
C1079      C1084   1.407       .  A
C1079      C1088   1.402       .  A
N1080      O1095   1.262       .  A
N1080      O1096   1.262       .  A
N1082      O1093   1.262       .  A
N1082      O1094   1.261       .  A
C1084      C1085   1.396       .  A
C1084      N1089   1.432       .  S
C1085      C1086   1.409       .  A
C1085      H1090   1.082       .  S
C1086      C1087   1.416       .  A
C1087      C1088   1.404       .  A
C1087      N1091   1.428       .  S
C1088      H1092   1.084       .  S
N1089      O1099   1.262       .  A
N1089      O1100   1.262       .  A
N1091      O1097   1.262       .  A
N1091      O1098   1.262       .  A
C1101      C1102   1.402       .  A
C1101      C1106   1.398       .  A
C1101      H1111   1.084       .  S
C1102      C1107   1.487   1_545  S
C1102      C1103   1.410       .  A
C1103      C1104   1.403       .  A
C1103      N1108   1.430   1_545  S
C1104      C1105   1.410       .  A
C1104      H1109   1.083       .  S
C1105      C1106   1.418       .  A
C1106      N1110   1.429       .  S
C1107      C1112   1.413       .  A
C1107      C1116   1.402       .  A
N1108      O1123   1.262       .  A
N1108      O1124   1.262       .  A
N1110      O1121   1.262       .  A
N1110      O1122   1.262       .  A
C1112      C1113   1.407       .  A
C1112      N1117   1.432       .  S
C1113      C1114   1.406       .  A
C1113      H1118   1.084       .  S
C1114      C1115   1.412       .  A
C1115      C1116   1.397       .  A
C1115      N1119   1.429       .  S
C1116      H1120   1.084       .  S
N1117      O1127   1.262       .  A
N1117      O1128   1.262       .  A
N1119      O1125   1.262       .  A
N1119      O1126   1.262       .  A
C1129      C1130   1.401       .  A
C1129      C1134   1.405       .  A
C1129      H1139   1.084       .  S
C1130      C1135   1.478       .  S
C1130      C1131   1.403       .  A
C1131      C1132   1.396       .  A
C1131      N1136   1.429       .  S
C1132      C1133   1.409       .  A
C1132      H1137   1.082       .  S
C1133      C1134   1.420       .  A
C1134      N1138   1.429       .  S
C1135      C1140   1.407       .  A
C1135      C1144   1.399       .  A
N1136      O1151   1.262       .  A
N1136      O1152   1.262       .  A
N1138      O1149   1.262       .  A
N1138      O1150   1.262       .  A
C1140      C1141   1.403       .  A
C1140      N1145   1.428       .  S
C1141      C1142   1.405       .  A
C1141      H1146   1.084       .  S
C1142      C1143   1.411       .  A
C1143      C1144   1.401       .  A
C1143      N1147   1.432       .  S
C1144      H1148   1.084       .  S
N1145      O1155   1.262       .  A
N1145      O1156   1.262       .  A
N1147      O1153   1.262       .  A
N1147      O1154   1.261       .  A
C1157      C1158   1.399       .  A
C1157      C1162   1.401       .  A
C1157      H1167   1.084       .  S
C1158      C1163   1.473       .  S
C1158      C1159   1.406       .  A
C1159      C1160   1.399       .  A
C1159      N1164   1.429       .  S
C1160      C1161   1.405       .  A
C1160      H1165   1.084       .  S
C1161      C1162   1.414       .  A
C1162      N1166   1.430       .  S
C1163      C1168   1.406       .  A
C1163      C1172   1.400       .  A
N1164      O1179   1.262       .  A
N1164      O1180   1.262       .  A
N1166      O1177   1.262       .  A
N1166      O1178   1.262       .  A
C1168      C1169   1.400       .  A
C1168      N1173   1.428       .  S
C1169      C1170   1.403       .  A
C1169      H1174   1.084       .  S
C1170      C1171   1.413       .  A
C1171      C1172   1.399       .  A
C1171      N1175   1.430       .  S
C1172      H1176   1.084       .  S
N1173      O1183   1.261       .  A
N1173      O1184   1.262       .  A
N1175      O1181   1.262       .  A
N1175      O1182   1.262       .  A
C1185      C1186   1.402       .  A
C1185      C1190   1.397       .  A
C1185      H1195   1.084       .  S
C1186      C1191   1.481       .  S
C1186      C1187   1.411       .  A
C1187      C1188   1.402       .  A
C1187      N1192   1.428       .  S
C1188      C1189   1.400       .  A
C1188      H1193   1.084       .  S
C1189      C1190   1.408       .  A
C1190      N1194   1.429       .  S
C1191      C1196   1.407       .  A
C1191      C1200   1.401       .  A
N1192      O1207   1.262       .  A
N1192      O1208   1.262       .  A
N1194      O1205   1.262       .  A
N1194      O1206   1.262       .  A
C1196      C1197   1.396       .  A
C1196      N1201   1.430       .  S
C1197      C1198   1.409       .  A
C1197      H1202   1.083       .  S
C1198      C1199   1.419       .  A
C1199      C1200   1.402       .  A
C1199      N1203   1.429       .  S
C1200      H1204   1.084       .  S
N1201      O1211   1.262       .  A
N1201      O1212   1.262       .  A
N1203      O1209   1.262       .  A
N1203      O1210   1.262       .  A
C1213      C1214   1.407       .  A
C1213      C1218   1.412       .  A
C1213      H1223   1.083       .  S
C1214      C1219   1.498       .  S
C1214      C1215   1.409   1_545  A
C1215      C1216   1.399       .  A
C1215      N1220   1.430       .  S
C1216      C1217   1.410   1_565  A
C1216      H1221   1.081       .  S
C1217      C1218   1.417       .  A
C1218      N1222   1.426       .  S
C1219      C1224   1.413       .  A
C1219      C1228   1.405   1_545  A
N1220      O1235   1.262       .  A
N1220      O1236   1.262       .  A
N1222      O1233   1.262       .  A
N1222      O1234   1.262       .  A
C1224      C1225   1.408       .  A
C1224      N1229   1.428       .  S
C1225      C1226   1.407   1_545  A
C1225      H1230   1.084       .  S
C1226      C1227   1.413       .  A
C1227      C1228   1.402       .  A
C1227      N1231   1.430       .  S
C1228      H1232   1.083       .  S
N1229      O1239   1.262       .  A
N1229      O1240   1.262       .  A
N1231      O1237   1.262       .  A
N1231      O1238   1.262       .  A
C1241      C1242   1.398       .  A
C1241      C1246   1.396       .  A
C1241      H1251   1.084       .  S
C1242      C1247   1.477       .  S
C1242      C1243   1.409       .  A
C1243      C1244   1.404       .  A
C1243      N1248   1.430       .  S
C1244      C1245   1.407       .  A
C1244      H1249   1.084       .  S
C1245      C1246   1.415       .  A
C1246      N1250   1.431       .  S
C1247      C1252   1.409       .  A
C1247      C1256   1.401       .  A
N1248      O1263   1.262       .  A
N1248      O1264   1.262       .  A
N1250      O1261   1.262       .  A
N1250      O1262   1.262       .  A
C1252      C1253   1.401       .  A
C1252      N1257   1.431       .  S
C1253      C1254   1.406       .  A
C1253      H1258   1.082       .  S
C1254      C1255   1.413       .  A
C1255      C1256   1.396       .  A
C1255      N1259   1.429       .  S
C1256      H1260   1.084       .  S
N1257      O1267   1.262       .  A
N1257      O1268   1.262       .  A
N1259      O1265   1.262       .  A
N1259      O1266   1.261       .  A
C1269      C1270   1.405       .  A
C1269      C1274   1.408       .  A
C1269      H1279   1.083       .  S
C1270      C1275   1.498       .  S
C1270      C1271   1.413       .  A
C1271      C1272   1.403       .  A
C1271      N1276   1.429       .  S
C1272      C1273   1.407       .  A
C1272      H1277   1.084       .  S
C1273      C1274   1.419       .  A
C1274      N1278   1.429       .  S
C1275      C1280   1.414       .  A
C1275      C1284   1.402       .  A
N1276      O1291   1.262       .  A
N1276      O1292   1.262       .  A
N1278      O1289   1.262       .  A
N1278      O1290   1.262       .  A
C1280      C1281   1.411       .  A
C1280      N1285   1.428       .  S
C1281      C1282   1.406       .  A
C1281      H1286   1.083       .  S
C1282      C1283   1.417       .  A
C1283      C1284   1.401       .  A
C1283      N1287   1.431       .  S
C1284      H1288   1.084       .  S
N1285      O1295   1.262       .  A
N1285      O1296   1.262       .  A
N1287      O1293   1.262       .  A
N1287      O1294   1.262       .  A
C1297      C1298   1.398       .  A
C1297      C1302   1.399   1_655  A
C1297      H1307   1.084       .  S
C1298      C1303   1.469       .  S
C1298      C1299   1.406       .  A
C1299      C1300   1.398   1_655  A
C1299      N1304   1.430       .  S
C1300      C1301   1.407       .  A
C1300      H1305   1.084       .  S
C1301      C1302   1.412       .  A
C1302      N1306   1.427       .  S
C1303      C1308   1.405       .  A
C1303      C1312   1.398       .  A
N1304      O1319   1.262       .  A
N1304      O1320   1.262       .  A
N1306      O1317   1.262       .  A
N1306      O1318   1.262       .  A
C1308      C1309   1.395       .  A
C1308      N1313   1.430       .  S
C1309      C1310   1.405       .  A
C1309      H1314   1.083       .  S
C1310      C1311   1.414       .  A
C1311      C1312   1.402       .  A
C1311      N1315   1.431       .  S
C1312      H1316   1.084       .  S
N1313      O1323   1.262       .  A
N1313      O1324   1.262       .  A
N1315      O1321   1.262       .  A
N1315      O1322   1.262       .  A
C1325      C1326   1.403       .  A
C1325      C1330   1.405       .  A
C1325      H1335   1.084       .  S
C1326      C1331   1.481       .  S
C1326      C1327   1.407       .  A
C1327      C1328   1.397       .  A
C1327      N1332   1.431       .  S
C1328      C1329   1.408       .  A
C1328      H1333   1.084       .  S
C1329      C1330   1.415       .  A
C1330      N1334   1.428       .  S
C1331      C1336   1.410       .  A
C1331      C1340   1.402       .  A
N1332      O1347   1.262       .  A
N1332      O1348   1.262       .  A
N1334      O1345   1.262       .  A
N1334      O1346   1.262       .  A
C1336      C1337   1.398       .  A
C1336      N1341   1.430       .  S
C1337      C1338   1.403       .  A
C1337      H1342   1.084       .  S
C1338      C1339   1.412       .  A
C1339      C1340   1.403       .  A
C1339      N1343   1.428       .  S
C1340      H1344   1.084       .  S
N1341      O1351   1.262       .  A
N1341      O1352   1.262       .  A
N1343      O1349   1.262       .  A
N1343      O1350   1.262       .  A
C1353      C1354   1.403       .  A
C1353      C1358   1.403       .  A
C1353      H1363   1.084       .  S
C1354      C1359   1.481       .  S
C1354      C1355   1.409       .  A
C1355      C1356   1.397       .  A
C1355      N1360   1.430       .  S
C1356      C1357   1.405       .  A
C1356      H1361   1.084       .  S
C1357      C1358   1.412       .  A
C1358      N1362   1.428       .  S
C1359      C1364   1.409       .  A
C1359      C1368   1.402       .  A
N1360      O1375   1.262       .  A
N1360      O1376   1.262       .  A
N1362      O1373   1.262       .  A
N1362      O1374   1.262       .  A
C1364      C1365   1.398       .  A
C1364      N1369   1.432       .  S
C1365      C1366   1.406       .  A
C1365      H1370   1.084       .  S
C1366      C1367   1.411       .  A
C1367      C1368   1.402       .  A
C1367      N1371   1.425       .  S
C1368      H1372   1.084       .  S
N1369      O1379   1.262       .  A
N1369      O1380   1.262   1_455  A
N1371      O1377   1.261       .  A
N1371      O1378   1.262       .  A
C1381      C1382   1.399       .  A
C1381      C1386   1.398   1_655  A
C1381      H1391   1.084       .  S
C1382      C1387   1.475       .  S
C1382      C1383   1.409       .  A
C1383      C1384   1.402   1_655  A
C1383      N1388   1.430       .  S
C1384      C1385   1.403       .  A
C1384      H1389   1.084       .  S
C1385      C1386   1.411       .  A
C1386      N1390   1.429       .  S
C1387      C1392   1.404       .  A
C1387      C1396   1.399   1_655  A
N1388      O1403   1.262   1_655  A
N1388      O1404   1.262       .  A
N1390      O1401   1.262   1_455  A
N1390      O1402   1.262       .  A
C1392      C1393   1.401       .  A
C1392      N1397   1.429       .  S
C1393      C1394   1.409       .  A
C1393      H1398   1.082       .  S
C1394      C1395   1.417       .  A
C1395      C1396   1.400   1_655  A
C1395      N1399   1.429   1_655  S
C1396      H1400   1.084       .  S
N1397      O1407   1.262       .  A
N1397      O1408   1.261       .  A
N1399      O1405   1.262       .  A
N1399      O1406   1.262       .  A
C1409      C1410   1.401       .  A
C1409      C1414   1.400       .  A
C1409      H1419   1.084       .  S
C1410      C1415   1.481       .  S
C1410      C1411   1.407       .  A
C1411      C1412   1.402       .  A
C1411      N1416   1.428       .  S
C1412      C1413   1.407       .  A
C1412      H1417   1.084       .  S
C1413      C1414   1.416       .  A
C1414      N1418   1.431       .  S
C1415      C1420   1.405       .  A
C1415      C1424   1.401       .  A
N1416      O1431   1.262       .  A
N1416      O1432   1.262       .  A
N1418      O1429   1.262       .  A
N1418      O1430   1.262       .  A
C1420      C1421   1.399       .  A
C1420      N1425   1.429       .  S
C1421      C1422   1.408       .  A
C1421      H1426   1.083       .  S
C1422      C1423   1.418       .  A
C1423      C1424   1.406       .  A
C1423      N1427   1.434       .  S
C1424      H1428   1.084       .  S
N1425      O1435   1.262       .  A
N1425      O1436   1.262       .  A
N1427      O1433   1.262       .  A
N1427      O1434   1.262       .  A
C1437      C1438   1.400       .  A
C1437      C1442   1.404       .  A
C1437      H1447   1.084       .  S
C1438      C1443   1.478       .  S
C1438      C1439   1.406       .  A
C1439      C1440   1.397       .  A
C1439      N1444   1.430       .  S
C1440      C1441   1.409       .  A
C1440      H1445   1.084       .  S
C1441      C1442   1.417       .  A
C1442      N1446   1.428       .  S
C1443      C1448   1.408       .  A
C1443      C1452   1.403       .  A
N1444      O1459   1.262       .  A
N1444      O1460   1.262       .  A
N1446      O1457   1.262   1_554  A
N1446      O1458   1.262   1_565  A
C1448      C1449   1.397       .  A
C1448      N1453   1.430       .  S
C1449      C1450   1.403       .  A
C1449      H1454   1.084       .  S
C1450      C1451   1.410       .  A
C1451      C1452   1.404       .  A
C1451      N1455   1.428       .  S
C1452      H1456   1.084       .  S
N1453      O1463   1.262       .  A
N1453      O1464   1.262       .  A
N1455      O1461   1.262   1_554  A
N1455      O1462   1.262       .  A
C1465      C1466   1.405       .  A
C1465      C1470   1.406       .  A
C1465      H1475   1.083       .  S
C1466      C1471   1.485       .  S
C1466      C1467   1.409       .  A
C1467      C1468   1.393       .  A
C1467      N1472   1.432       .  S
C1468      C1469   1.401       .  A
C1468      H1473   1.079       .  S
C1469      C1470   1.417       .  A
C1470      N1474   1.430       .  S
C1471      C1476   1.410       .  A
C1471      C1480   1.402       .  A
N1472      O1487   1.262       .  A
N1472      O1488   1.262       .  A
N1474      O1485   1.262       .  A
N1474      O1486   1.262       .  A
C1476      C1477   1.404       .  A
C1476      N1481   1.429       .  S
C1477      C1478   1.406       .  A
C1477      H1482   1.084       .  S
C1478      C1479   1.413       .  A
C1479      C1480   1.395       .  A
C1479      N1483   1.430       .  S
C1480      H1484   1.084       .  S
N1481      O1491   1.262       .  A
N1481      O1492   1.262       .  A
N1483      O1489   1.262       .  A
N1483      O1490   1.262       .  A
C1493      C1494   1.400       .  A
C1493      C1498   1.396       .  A
C1493      H1503   1.084       .  S
C1494      C1499   1.480       .  S
C1494      C1495   1.409       .  A
C1495      C1496   1.403       .  A
C1495      N1500   1.429       .  S
C1496      C1497   1.410       .  A
C1496      H1501   1.084       .  S
C1497      C1498   1.411       .  A
C1498      N1502   1.426       .  S
C1499      C1504   1.410       .  A
C1499      C1508   1.402       .  A
N1500      O1515   1.262       .  A
N1500      O1516   1.262       .  A
N1502      O1513   1.262       .  A
N1502      O1514   1.262       .  A
C1504      C1505   1.403       .  A
C1504      N1509   1.430       .  S
C1505      C1506   1.406   1_545  A
C1505      H1510   1.084       .  S
C1506      C1507   1.409       .  A
C1507      C1508   1.397   1_565  A
C1507      N1511   1.429       .  S
C1508      H1512   1.084       .  S
N1509      O1519   1.262       .  A
N1509      O1520   1.262       .  A
N1511      O1517   1.262       .  A
N1511      O1518   1.262       .  A
C1521      C1522   1.401       .  A
C1521      C1526   1.396       .  A
C1521      H1531   1.084   1_554  S
C1522      C1527   1.491       .  S
C1522      C1523   1.414       .  A
C1523      C1524   1.407       .  A
C1523      N1528   1.431       .  S
C1524      C1525   1.408       .  A
C1524      H1529   1.084       .  S
C1525      C1526   1.417       .  A
C1526      N1530   1.430   1_554  S
C1527      C1532   1.414       .  A
C1527      C1536   1.404       .  A
N1528      O1543   1.262       .  A
N1528      O1544   1.262       .  A
N1530      O1541   1.262       .  A
N1530      O1542   1.262       .  A
C1532      C1533   1.407       .  A
C1532      N1537   1.431       .  S
C1533      C1534   1.406       .  A
C1533      H1538   1.084       .  S
C1534      C1535   1.411       .  A
C1535      C1536   1.398       .  A
C1535      N1539   1.429   1_565  S
C1536      H1540   1.084       .  S
N1537      O1547   1.262       .  A
N1537      O1548   1.262       .  A
N1539      O1545   1.262   1_554  A
N1539      O1546   1.262       .  A
C1549      C1550   1.403       .  A
C1549      C1554   1.403       .  A
C1549      H1559   1.084       .  S
C1550      C1555   1.480       .  S
C1550      C1551   1.407       .  A
C1551      C1552   1.393       .  A
C1551      N1556   1.430       .  S
C1552      C1553   1.408       .  A
C1552      H1557   1.082       .  S
C1553      C1554   1.415       .  A
C1554      N1558   1.427       .  S
C1555      C1560   1.411       .  A
C1555      C1564   1.404       .  A
N1556      O1571   1.262       .  A
N1556      O1572   1.262       .  A
N1558      O1569   1.262       .  A
N1558      O1570   1.261       .  A
C1560      C1561   1.399       .  A
C1560      N1565   1.429       .  S
C1561      C1562   1.402       .  A
C1561      H1566   1.084       .  S
C1562      C1563   1.408       .  A
C1563      C1564   1.396       .  A
C1563      N1567   1.431       .  S
C1564      H1568   1.083       .  S
N1565      O1575   1.262       .  A
N1565      O1576   1.262       .  A
N1567      O1573   1.262       .  A
N1567      O1574   1.262       .  A
C1577      C1578   1.402       .  A
C1577      C1582   1.403       .  A
C1577      H1587   1.084       .  S
C1578      C1583   1.475       .  S
C1578      C1579   1.407       .  A
C1579      C1580   1.395       .  A
C1579      N1584   1.429       .  S
C1580      C1581   1.402       .  A
C1580      H1585   1.084       .  S
C1581      C1582   1.413       .  A
C1582      N1586   1.430       .  S
C1583      C1588   1.406       .  A
C1583      C1592   1.398       .  A
N1584      O1599   1.262       .  A
N1584      O1600   1.262       .  A
N1586      O1597   1.262       .  A
N1586      O1598   1.262       .  A
C1588      C1589   1.403       .  A
C1588      N1593   1.428       .  S
C1589      C1590   1.408       .  A
C1589      H1594   1.084       .  S
C1590      C1591   1.416       .  A
C1591      C1592   1.395       .  A
C1591      N1595   1.431       .  S
C1592      H1596   1.084       .  S
N1593      O1603   1.262       .  A
N1593      O1604   1.262       .  A
N1595      O1601   1.262       .  A
N1595      O1602   1.262       .  A
C1605      C1606   1.400       .  A
C1605      C1610   1.402       .  A
C1605      H1615   1.084       .  S
C1606      C1611   1.472       .  S
C1606      C1607   1.406       .  A
C1607      C1608   1.393       .  A
C1607      N1612   1.431       .  S
C1608      C1609   1.405       .  A
C1608      H1613   1.081       .  S
C1609      C1610   1.417       .  A
C1610      N1614   1.429       .  S
C1611      C1616   1.408       .  A
C1611      C1620   1.401       .  A
N1612      O1627   1.262       .  A
N1612      O1628   1.262       .  A
N1614      O1625   1.262       .  A
N1614      O1626   1.262       .  A
C1616      C1617   1.397       .  A
C1616      N1621   1.430       .  S
C1617      C1618   1.403       .  A
C1617      H1622   1.084       .  S
C1618      C1619   1.408       .  A
C1619      C1620   1.400       .  A
C1619      N1623   1.429       .  S
C1620      H1624   1.084       .  S
N1621      O1631   1.262       .  A
N1621      O1632   1.262       .  A
N1623      O1629   1.262       .  A
N1623      O1630   1.261       .  A
C1633      C1634   1.401       .  A
C1633      C1638   1.402       .  A
C1633      H1643   1.084       .  S
C1634      C1639   1.471       .  S
C1634      C1635   1.404       .  A
C1635      C1636   1.395       .  A
C1635      N1640   1.429       .  S
C1636      C1637   1.406       .  A
C1636      H1641   1.084       .  S
C1637      C1638   1.413       .  A
C1638      N1642   1.429       .  S
C1639      C1644   1.406       .  A
C1639      C1648   1.399       .  A
N1640      O1655   1.262       .  A
N1640      O1656   1.262       .  A
N1642      O1653   1.262       .  A
N1642      O1654   1.262       .  A
C1644      C1645   1.400       .  A
C1644      N1649   1.429       .  S
C1645      C1646   1.405       .  A
C1645      H1650   1.084       .  S
C1646      C1647   1.412       .  A
C1647      C1648   1.398       .  A
C1647      N1651   1.430       .  S
C1648      H1652   1.084       .  S
N1649      O1659   1.262       .  A
N1649      O1660   1.262       .  A
N1651      O1657   1.262       .  A
N1651      O1658   1.262       .  A
C1661      C1662   1.406       .  A
C1661      C1666   1.408       .  A
C1661      H1671   1.083       .  S
C1662      C1667   1.487       .  S
C1662      C1663   1.408       .  A
C1663      C1664   1.395       .  A
C1663      N1668   1.430       .  S
C1664      C1665   1.406       .  A
C1664      H1669   1.084       .  S
C1665      C1666   1.415       .  A
C1666      N1670   1.429       .  S
C1667      C1672   1.409       .  A
C1667      C1676   1.404       .  A
N1668      O1683   1.262       .  A
N1668      O1684   1.262       .  A
N1670      O1681   1.262       .  A
N1670      O1682   1.262       .  A
C1672      C1673   1.404       .  A
C1672      N1677   1.429       .  S
C1673      C1674   1.406       .  A
C1673      H1678   1.082       .  S
C1674      C1675   1.411       .  A
C1675      C1676   1.398       .  A
C1675      N1679   1.428       .  S
C1676      H1680   1.084       .  S
N1677      O1687   1.262       .  A
N1677      O1688   1.262       .  A
N1679      O1685   1.262       .  A
N1679      O1686   1.262       .  A
C1689      C1690   1.401       .  A
C1689      C1694   1.398       .  A
C1689      H1699   1.084       .  S
C1690      C1695   1.483       .  S
C1690      C1691   1.409       .  A
C1691      C1692   1.403       .  A
C1691      N1696   1.429       .  S
C1692      C1693   1.405       .  A
C1692      H1697   1.084       .  S
C1693      C1694   1.414       .  A
C1694      N1698   1.430       .  S
C1695      C1700   1.409       .  A
C1695      C1704   1.403       .  A
N1696      O1711   1.262       .  A
N1696      O1712   1.262       .  A
N1698      O1709   1.262       .  A
N1698      O1710   1.262       .  A
C1700      C1701   1.396   1_655  A
C1700      N1705   1.429       .  S
C1701      C1702   1.404       .  A
C1701      H1706   1.084       .  S
C1702      C1703   1.415       .  A
C1703      C1704   1.404   1_455  A
C1703      N1707   1.429       .  S
C1704      H1708   1.084       .  S
N1705      O1715   1.262       .  A
N1705      O1716   1.262       .  A
N1707      O1713   1.262       .  A
N1707      O1714   1.261       .  A
C1717      C1718   1.404       .  A
C1717      C1722   1.398       .  A
C1717      H1727   1.083       .  S
C1718      C1723   1.493       .  S
C1718      C1719   1.413       .  A
C1719      C1720   1.404       .  A
C1719      N1724   1.429       .  S
C1720      C1721   1.405       .  A
C1720      H1725   1.084       .  S
C1721      C1722   1.413       .  A
C1722      N1726   1.430       .  S
C1723      C1728   1.412       .  A
C1723      C1732   1.406       .  A
N1724      O1739   1.262       .  A
N1724      O1740   1.262       .  A
N1726      O1737   1.262       .  A
N1726      O1738   1.262       .  A
C1728      C1729   1.396       .  A
C1728      N1733   1.430       .  S
C1729      C1730   1.404       .  A
C1729      H1734   1.081       .  S
C1730      C1731   1.418       .  A
C1731      C1732   1.407       .  A
C1731      N1735   1.429       .  S
C1732      H1736   1.083       .  S
N1733      O1743   1.262       .  A
N1733      O1744   1.262       .  A
N1735      O1741   1.262       .  A
N1735      O1742   1.262       .  A
C1745      C1746   1.405       .  A
C1745      C1750   1.399       .  A
C1745      H1755   1.084       .  S
C1746      C1751   1.488       .  S
C1746      C1747   1.410       .  A
C1747      C1748   1.403       .  A
C1747      N1752   1.428       .  S
C1748      C1749   1.406       .  A
C1748      H1753   1.084       .  S
C1749      C1750   1.410       .  A
C1750      N1754   1.430       .  S
C1751      C1756   1.408       .  A
C1751      C1760   1.406       .  A
N1752      O1767   1.262       .  A
N1752      O1768   1.262       .  A
N1754      O1765   1.262       .  A
N1754      O1766   1.262       .  A
C1756      C1757   1.394       .  A
C1756      N1761   1.430       .  S
C1757      C1758   1.407       .  A
C1757      H1762   1.083       .  S
C1758      C1759   1.417       .  A
C1759      C1760   1.409       .  A
C1759      N1763   1.429       .  S
C1760      H1764   1.083       .  S
N1761      O1771   1.262       .  A
N1761      O1772   1.262       .  A
N1763      O1769   1.262       .  A
N1763      O1770   1.262       .  A
C1773      C1774   1.401   1_545  A
C1773      C1778   1.397       .  A
C1773      H1783   1.084       .  S
C1774      C1779   1.477       .  S
C1774      C1775   1.405       .  A
C1775      C1776   1.398   1_565  A
C1775      N1780   1.429       .  S
C1776      C1777   1.408       .  A
C1776      H1781   1.082       .  S
C1777      C1778   1.416       .  A
C1778      N1782   1.430       .  S
C1779      C1784   1.408       .  A
C1779      C1788   1.403       .  A
N1780      O1795   1.262       .  A
N1780      O1796   1.262       .  A
N1782      O1793   1.262       .  A
N1782      O1794   1.262       .  A
C1784      C1785   1.395       .  A
C1784      N1789   1.430       .  S
C1785      C1786   1.402       .  A
C1785      H1790   1.084       .  S
C1786      C1787   1.410       .  A
C1787      C1788   1.401       .  A
C1787      N1791   1.430       .  S
C1788      H1792   1.084       .  S
N1789      O1799   1.262       .  A
N1789      O1800   1.262       .  A
N1791      O1797   1.262       .  A
N1791      O1798   1.261       .  A
C1801      C1802   1.405   1_655  A
C1801      C1806   1.407   1_655  A
C1801      H1811   1.084       .  S
C1802      C1807   1.487   1_455  S
C1802      C1803   1.408       .  A
C1803      C1804   1.398       .  A
C1803      N1808   1.433       .  S
C1804      C1805   1.410       .  A
C1804      H1809   1.083       .  S
C1805      C1806   1.416       .  A
C1806      N1810   1.428   1_455  S
C1807      C1812   1.413       .  A
C1807      C1816   1.401       .  A
N1808      O1823   1.262       .  A
N1808      O1824   1.262       .  A
N1810      O1821   1.262       .  A
N1810      O1822   1.262       .  A
C1812      C1813   1.403       .  A
C1812      N1817   1.431   1_655  S
C1813      C1814   1.404       .  A
C1813      H1818   1.084       .  S
C1814      C1815   1.412       .  A
C1815      C1816   1.403       .  A
C1815      N1819   1.426       .  S
C1816      H1820   1.084       .  S
N1817      O1827   1.262   1_455  A
N1817      O1828   1.262       .  A
N1819      O1825   1.261       .  A
N1819      O1826   1.262       .  A
C1829      C1830   1.399       .  A
C1829      C1834   1.394       .  A
C1829      H1839   1.084       .  S
C1830      C1835   1.475       .  S
C1830      C1831   1.410       .  A
C1831      C1832   1.402       .  A
C1831      N1836   1.430       .  S
C1832      C1833   1.405       .  A
C1832      H1837   1.084       .  S
C1833      C1834   1.412       .  A
C1834      N1838   1.430       .  S
C1835      C1840   1.407       .  A
C1835      C1844   1.402       .  A
N1836      O1851   1.262       .  A
N1836      O1852   1.262       .  A
N1838      O1849   1.262       .  A
N1838      O1850   1.262       .  A
C1840      C1841   1.399       .  A
C1840      N1845   1.430       .  S
C1841      C1842   1.409       .  A
C1841      H1846   1.084       .  S
C1842      C1843   1.412       .  A
C1843      C1844   1.396       .  A
C1843      N1847   1.429       .  S
C1844      H1848   1.084       .  S
N1845      O1855   1.262       .  A
N1845      O1856   1.262       .  A
N1847      O1853   1.262       .  A
N1847      O1854   1.262       .  A
C1857      C1858   1.403       .  A
C1857      C1862   1.399       .  A
C1857      H1867   1.084       .  S
C1858      C1863   1.480       .  S
C1858      C1859   1.408       .  A
C1859      C1860   1.400       .  A
C1859      N1864   1.428       .  S
C1860      C1861   1.404       .  A
C1860      H1865   1.084       .  S
C1861      C1862   1.412       .  A
C1862      N1866   1.430       .  S
C1863      C1868   1.405       .  A
C1863      C1872   1.402       .  A
N1864      O1879   1.262       .  A
N1864      O1880   1.262       .  A
N1866      O1877   1.262       .  A
N1866      O1878   1.262       .  A
C1868      C1869   1.396       .  A
C1868      N1873   1.430       .  S
C1869      C1870   1.408       .  A
C1869      H1874   1.082       .  S
C1870      C1871   1.418       .  A
C1871      C1872   1.405       .  A
C1871      N1875   1.429       .  S
C1872      H1876   1.084       .  S
N1873      O1883   1.262       .  A
N1873      O1884   1.262       .  A
N1875      O1881   1.262       .  A
N1875      O1882   1.262       .  A
C1885      C1886   1.404       .  A
C1885      C1890   1.406       .  A
C1885      H1895   1.084       .  S
C1886      C1891   1.483       .  S
C1886      C1887   1.409       .  A
C1887      C1888   1.400       .  A
C1887      N1892   1.428       .  S
C1888      C1889   1.401       .  A
C1888      H1893   1.084       .  S
C1889      C1890   1.413       .  A
C1890      N1894   1.430       .  S
C1891      C1896   1.408       .  A
C1891      C1900   1.398       .  A
N1892      O1907   1.261       .  A
N1892      O1908   1.262       .  A
N1894      O1905   1.262       .  A
N1894      O1906   1.262       .  A
C1896      C1897   1.407       .  A
C1896      N1901   1.429       .  S
C1897      C1898   1.410       .  A
C1897      H1902   1.083       .  S
C1898      C1899   1.419       .  A
C1899      C1900   1.398       .  A
C1899      N1903   1.430       .  S
C1900      H1904   1.084       .  S
N1901      O1911   1.262       .  A
N1901      O1912   1.262       .  A
N1903      O1909   1.262       .  A
N1903      O1910   1.262       .  A
C1913      C1914   1.401       .  A
C1913      C1918   1.394       .  A
C1913      H1923   1.084       .  S
C1914      C1919   1.478       .  S
C1914      C1915   1.409       .  A
C1915      C1916   1.402       .  A
C1915      N1920   1.430       .  S
C1916      C1917   1.407       .  A
C1916      H1921   1.084       .  S
C1917      C1918   1.410       .  A
C1918      N1922   1.428       .  S
C1919      C1924   1.407       .  A
C1919      C1928   1.403       .  A
N1920      O1935   1.262       .  A
N1920      O1936   1.262       .  A
N1922      O1933   1.262       .  A
N1922      O1934   1.262       .  A
C1924      C1925   1.394       .  A
C1924      N1929   1.430       .  S
C1925      C1926   1.404       .  A
C1925      H1930   1.084       .  S
C1926      C1927   1.415       .  A
C1927      C1928   1.403       .  A
C1927      N1931   1.429       .  S
C1928      H1932   1.084       .  S
N1929      O1939   1.262       .  A
N1929      O1940   1.262       .  A
N1931      O1937   1.262       .  A
N1931      O1938   1.262       .  A
C1941      C1942   1.405       .  A
C1941      C1946   1.401       .  A
C1941      H1951   1.084       .  S
C1942      C1947   1.488       .  S
C1942      C1943   1.410   1_545  A
C1943      C1944   1.402       .  A
C1943      N1948   1.432       .  S
C1944      C1945   1.408       .  A
C1944      H1949   1.080   1_455  S
C1945      C1946   1.414   1_565  A
C1946      N1950   1.429       .  S
C1947      C1952   1.414       .  A
C1947      C1956   1.401       .  A
N1948      O1963   1.262       .  A
N1948      O1964   1.262       .  A
N1950      O1961   1.262       .  A
N1950      O1962   1.262       .  A
C1952      C1953   1.405       .  A
C1952      N1957   1.431   1_545  S
C1953      C1954   1.405       .  A
C1953      H1958   1.084       .  S
C1954      C1955   1.413       .  A
C1955      C1956   1.398       .  A
C1955      N1959   1.429       .  S
C1956      H1960   1.084       .  S
N1957      O1967   1.262   1_565  A
N1957      O1968   1.262       .  A
N1959      O1965   1.262       .  A
N1959      O1966   1.262       .  A
C1969      C1970   1.404       .  A
C1969      C1974   1.404       .  A
C1969      H1979   1.084       .  S
C1970      C1975   1.480       .  S
C1970      C1971   1.409       .  A
C1971      C1972   1.393       .  A
C1971      N1976   1.430       .  S
C1972      C1973   1.402       .  A
C1972      H1977   1.083       .  S
C1973      C1974   1.413       .  A
C1974      N1978   1.429       .  S
C1975      C1980   1.406       .  A
C1975      C1984   1.399       .  A
N1976      O1991   1.262       .  A
N1976      O1992   1.262       .  A
N1978      O1989   1.262       .  A
N1978      O1990   1.262       .  A
C1980      C1981   1.401       .  A
C1980      N1985   1.429       .  S
C1981      C1982   1.409       .  A
C1981      H1986   1.083       .  S
C1982      C1983   1.419       .  A
C1983      C1984   1.396       .  A
C1983      N1987   1.430       .  S
C1984      H1988   1.084       .  S
N1985      O1995   1.262       .  A
N1985      O1996   1.262       .  A
N1987      O1993   1.261       .  A
N1987      O1994   1.262       .  A
C1997      C1998   1.400   1_545  A
C1997      C2002   1.402       .  A
C1997      H2007   1.084   1_545  S
C1998      C2003   1.474       .  S
C1998      C1999   1.406   1_565  A
C1999      C2000   1.397       .  A
C1999      N2004   1.430       .  S
C2000      C2001   1.405       .  A
C2000      H2005   1.084       .  S
C2001      C2002   1.414       .  A
C2002      N2006   1.428       .  S
C2003      C2008   1.406       .  A
C2003      C2012   1.402       .  A
N2004      O2019   1.262       .  A
N2004      O2020   1.262   1_545  A
N2006      O2017   1.262       .  A
N2006      O2018   1.262       .  A
C2008      C2009   1.395       .  A
C2008      N2013   1.429       .  S
C2009      C2010   1.402       .  A
C2009      H2014   1.084       .  S
C2010      C2011   1.411       .  A
C2011      C2012   1.404       .  A
C2011      N2015   1.429       .  S
C2012      H2016   1.084       .  S
N2013      O2023   1.262       .  A
N2013      O2024   1.262       .  A
N2015      O2021   1.262       .  A
N2015      O2022   1.262       .  A
C2025      C2026   1.404       .  A
C2025      C2030   1.406       .  A
C2025      H2035   1.084       .  S
C2026      C2031   1.485       .  S
C2026      C2027   1.409       .  A
C2027      C2028   1.400       .  A
C2027      N2032   1.430       .  S
C2028      C2029   1.405       .  A
C2028      H2033   1.084       .  S
C2029      C2030   1.411       .  A
C2030      N2034   1.428       .  S
C2031      C2036   1.409       .  A
C2031      C2040   1.402       .  A
N2032      O2047   1.262       .  A
N2032      O2048   1.262       .  A
N2034      O2045   1.262       .  A
N2034      O2046   1.262       .  A
C2036      C2037   1.400       .  A
C2036      N2041   1.430       .  S
C2037      C2038   1.408       .  A
C2037      H2042   1.083       .  S
C2038      C2039   1.418       .  A
C2039      C2040   1.406       .  A
C2039      N2043   1.429       .  S
C2040      H2044   1.084       .  S
N2041      O2051   1.262       .  A
N2041      O2052   1.262       .  A
N2043      O2049   1.262       .  A
N2043      O2050   1.262       .  A
C2053      C2054   1.398       .  A
C2053      C2058   1.396       .  A
C2053      H2063   1.084       .  S
C2054      C2059   1.478       .  S
C2054      C2055   1.407   1_655  A
C2055      C2056   1.403       .  A
C2055      N2060   1.428       .  S
C2056      C2057   1.406       .  A
C2056      H2061   1.084       .  S
C2057      C2058   1.417   1_455  A
C2058      N2062   1.431       .  S
C2059      C2064   1.407       .  A
C2059      C2068   1.401   1_655  A
N2060      O2075   1.262       .  A
N2060      O2076   1.262   1_455  A
N2062      O2073   1.262       .  A
N2062      O2074   1.262       .  A
C2064      C2065   1.396       .  A
C2064      N2069   1.429       .  S
C2065      C2066   1.404       .  A
C2065      H2070   1.084       .  S
C2066      C2067   1.415       .  A
C2067      C2068   1.403   1_655  A
C2067      N2071   1.429   1_655  S
C2068      H2072   1.084       .  S
N2069      O2079   1.262       .  A
N2069      O2080   1.262       .  A
N2071      O2077   1.262       .  A
N2071      O2078   1.261       .  A
C2081      C2082   1.400       .  A
C2081      C2086   1.400       .  A
C2081      H2091   1.084       .  S
C2082      C2087   1.474       .  S
C2082      C2083   1.408       .  A
C2083      C2084   1.395       .  A
C2083      N2088   1.431       .  S
C2084      C2085   1.404       .  A
C2084      H2089   1.082       .  S
C2085      C2086   1.415       .  A
C2086      N2090   1.429       .  S
C2087      C2092   1.407       .  A
C2087      C2096   1.402       .  A
N2088      O2103   1.262       .  A
N2088      O2104   1.262       .  A
N2090      O2101   1.262       .  A
N2090      O2102   1.262       .  A
C2092      C2093   1.395       .  A
C2092      N2097   1.431       .  S
C2093      C2094   1.405       .  A
C2093      H2098   1.083       .  S
C2094      C2095   1.411       .  A
C2095      C2096   1.400       .  A
C2095      N2099   1.428       .  S
C2096      H2100   1.084       .  S
N2097      O2107   1.262       .  A
N2097      O2108   1.262       .  A
N2099      O2105   1.262       .  A
N2099      O2106   1.262       .  A
C2109      C2110   1.403       .  A
C2109      C2114   1.398       .  A
C2109      H2119   1.083       .  S
C2110      C2115   1.487       .  S
C2110      C2111   1.413       .  A
C2111      C2112   1.401       .  A
C2111      N2116   1.429       .  S
C2112      C2113   1.403       .  A
C2112      H2117   1.084       .  S
C2113      C2114   1.412       .  A
C2114      N2118   1.430       .  S
C2115      C2120   1.410       .  A
C2115      C2124   1.402       .  A
N2116      O2131   1.262       .  A
N2116      O2132   1.262       .  A
N2118      O2129   1.262       .  A
N2118      O2130   1.262       .  A
C2120      C2121   1.397       .  A
C2120      N2125   1.430       .  S
C2121      C2122   1.408       .  A
C2121      H2126   1.083       .  S
C2122      C2123   1.418       .  A
C2123      C2124   1.402       .  A
C2123      N2127   1.428       .  S
C2124      H2128   1.083       .  S
N2125      O2135   1.262       .  A
N2125      O2136   1.262       .  A
N2127      O2133   1.261   1_554  A
N2127      O2134   1.261       .  A
C2137      C2138   1.397       .  A
C2137      C2142   1.401       .  A
C2137      H2147   1.084       .  S
C2138      C2143   1.478       .  S
C2138      C2139   1.408       .  A
C2139      C2140   1.403       .  A
C2139      N2144   1.429       .  S
C2140      C2141   1.404       .  A
C2140      H2145   1.081       .  S
C2141      C2142   1.412       .  A
C2142      N2146   1.425       .  S
C2143      C2148   1.404       .  A
C2143      C2152   1.402       .  A
N2144      O2159   1.262       .  A
N2144      O2160   1.261       .  A
N2146      O2157   1.261       .  A
N2146      O2158   1.262       .  A
C2148      C2149   1.397       .  A
C2148      N2153   1.429       .  S
C2149      C2150   1.409       .  A
C2149      H2154   1.083       .  S
C2150      C2151   1.415       .  A
C2151      C2152   1.406       .  A
C2151      N2155   1.428       .  S
C2152      H2156   1.084       .  S
N2153      O2163   1.262       .  A
N2153      O2164   1.262       .  A
N2155      O2161   1.262       .  A
N2155      O2162   1.262       .  A
C2165      C2166   1.403       .  A
C2165      C2170   1.402       .  A
C2165      H2175   1.083       .  S
C2166      C2171   1.493       .  S
C2166      C2167   1.414       .  A
C2167      C2168   1.405       .  A
C2167      N2172   1.429       .  S
C2168      C2169   1.404       .  A
C2168      H2173   1.084       .  S
C2169      C2170   1.412       .  A
C2170      N2174   1.433       .  S
C2171      C2176   1.411       .  A
C2171      C2180   1.402       .  A
N2172      O2187   1.262       .  A
N2172      O2188   1.262       .  A
N2174      O2185   1.262       .  A
N2174      O2186   1.262   1_556  A
C2176      C2177   1.399       .  A
C2176      N2181   1.430       .  S
C2177      C2178   1.409       .  A
C2177      H2182   1.083       .  S
C2178      C2179   1.419       .  A
C2179      C2180   1.405       .  A
C2179      N2183   1.427       .  S
C2180      H2184   1.083       .  S
N2181      O2191   1.262       .  A
N2181      O2192   1.262       .  A
N2183      O2189   1.261       .  A
N2183      O2190   1.260       .  A
C2193      C2194   1.401       .  A
C2193      C2198   1.398       .  A
C2193      H2203   1.084   1_554  S
C2194      C2199   1.475       .  S
C2194      C2195   1.408       .  A
C2195      C2196   1.400       .  A
C2195      N2200   1.429       .  S
C2196      C2197   1.405       .  A
C2196      H2201   1.084       .  S
C2197      C2198   1.411       .  A
C2198      N2202   1.429   1_554  S
C2199      C2204   1.406       .  A
C2199      C2208   1.397       .  A
N2200      O2215   1.262       .  A
N2200      O2216   1.262       .  A
N2202      O2213   1.262       .  A
N2202      O2214   1.262       .  A
C2204      C2205   1.403       .  A
C2204      N2209   1.429       .  S
C2205      C2206   1.410       .  A
C2205      H2210   1.083       .  S
C2206      C2207   1.415       .  A
C2207      C2208   1.397       .  A
C2207      N2211   1.427       .  S
C2208      H2212   1.084       .  S
N2209      O2219   1.262       .  A
N2209      O2220   1.262       .  A
N2211      O2217   1.262   1_554  A
N2211      O2218   1.262       .  A
C2221      C2222   1.401       .  A
C2221      C2226   1.404       .  A
C2221      H2231   1.084       .  S
C2222      C2227   1.480       .  S
C2222      C2223   1.405       .  A
C2223      C2224   1.398       .  A
C2223      N2228   1.429       .  S
C2224      C2225   1.408       .  A
C2224      H2229   1.084       .  S
C2225      C2226   1.417       .  A
C2226      N2230   1.427       .  S
C2227      C2232   1.405   1_455  A
C2227      C2236   1.401       .  A
N2228      O2243   1.262       .  A
N2228      O2244   1.262   1_455  A
N2230      O2241   1.261       .  A
N2230      O2242   1.261       .  A
C2232      C2233   1.402       .  A
C2232      N2237   1.428       .  S
C2233      C2234   1.407       .  A
C2233      H2238   1.084       .  S
C2234      C2235   1.415   1_655  A
C2235      C2236   1.403       .  A
C2235      N2239   1.434       .  S
C2236      H2240   1.084       .  S
N2237      O2247   1.262       .  A
N2237      O2248   1.262       .  A
N2239      O2245   1.262       .  A
N2239      O2246   1.262       .  A
C2249      C2250   1.398       .  A
C2249      C2254   1.398       .  A
C2249      H2259   1.084       .  S
C2250      C2255   1.477       .  S
C2250      C2251   1.407       .  A
C2251      C2252   1.404       .  A
C2251      N2256   1.429       .  S
C2252      C2253   1.407       .  A
C2252      H2257   1.084       .  S
C2253      C2254   1.417       .  A
C2254      N2258   1.430       .  S
C2255      C2260   1.407       .  A
C2255      C2264   1.398       .  A
N2256      O2271   1.262       .  A
N2256      O2272   1.261       .  A
N2258      O2269   1.262       .  A
N2258      O2270   1.262       .  A
C2260      C2261   1.403       .  A
C2260      N2265   1.430       .  S
C2261      C2262   1.408       .  A
C2261      H2266   1.084       .  S
C2262      C2263   1.415       .  A
C2263      C2264   1.401       .  A
C2263      N2267   1.431       .  S
C2264      H2268   1.084       .  S
N2265      O2275   1.262       .  A
N2265      O2276   1.262       .  A
N2267      O2273   1.262   1_655  A
N2267      O2274   1.262   1_655  A
C2277      C2278   1.401       .  A
C2277      C2282   1.405       .  A
C2277      H2287   1.084       .  S
C2278      C2283   1.481       .  S
C2278      C2279   1.407       .  A
C2279      C2280   1.398       .  A
C2279      N2284   1.429       .  S
C2280      C2281   1.406       .  A
C2280      H2285   1.084       .  S
C2281      C2282   1.418       .  A
C2282      N2286   1.429       .  S
C2283      C2288   1.409       .  A
C2283      C2292   1.400       .  A
N2284      O2299   1.262       .  A
N2284      O2300   1.262       .  A
N2286      O2297   1.262       .  A
N2286      O2298   1.262       .  A
C2288      C2289   1.405       .  A
C2288      N2293   1.428       .  S
C2289      C2290   1.406       .  A
C2289      H2294   1.084       .  S
C2290      C2291   1.414       .  A
C2291      C2292   1.397       .  A
C2291      N2295   1.430       .  S
C2292      H2296   1.084       .  S
N2293      O2303   1.262       .  A
N2293      O2304   1.262       .  A
N2295      O2301   1.262       .  A
N2295      O2302   1.262       .  A
C2305      C2306   1.408       .  A
C2305      C2310   1.407       .  A
C2305      H2315   1.083       .  S
C2306      C2311   1.490       .  S
C2306      C2307   1.409       .  A
C2307      C2308   1.395       .  A
C2307      N2312   1.430       .  S
C2308      C2309   1.406       .  A
C2308      H2313   1.084       .  S
C2309      C2310   1.412       .  A
C2310      N2314   1.429       .  S
C2311      C2316   1.410       .  A
C2311      C2320   1.405       .  A
N2312      O2327   1.262       .  A
N2312      O2328   1.262       .  A
N2314      O2325   1.262       .  A
N2314      O2326   1.262       .  A
C2316      C2317   1.401       .  A
C2316      N2321   1.429       .  S
C2317      C2318   1.404       .  A
C2317      H2322   1.081       .  S
C2318      C2319   1.414       .  A
C2319      C2320   1.401       .  A
C2319      N2323   1.430       .  S
C2320      H2324   1.083       .  S
N2321      O2331   1.262       .  A
N2321      O2332   1.262       .  A
N2323      O2329   1.262       .  A
N2323      O2330   1.262       .  A
C2333      C2334   1.403       .  A
C2333      C2338   1.400       .  A
C2333      H2343   1.084       .  S
C2334      C2339   1.487       .  S
C2334      C2335   1.411       .  A
C2335      C2336   1.402       .  A
C2335      N2340   1.429       .  S
C2336      C2337   1.403       .  A
C2336      H2341   1.084       .  S
C2337      C2338   1.411       .  A
C2338      N2342   1.432       .  S
C2339      C2344   1.409       .  A
C2339      C2348   1.404       .  A
N2340      O2355   1.262       .  A
N2340      O2356   1.262       .  A
N2342      O2353   1.262       .  A
N2342      O2354   1.262       .  A
C2344      C2345   1.395       .  A
C2344      N2349   1.430       .  S
C2345      C2346   1.408       .  A
C2345      H2350   1.083       .  S
C2346      C2347   1.418       .  A
C2347      C2348   1.404       .  A
C2347      N2351   1.429       .  S
C2348      H2352   1.083       .  S
N2349      O2359   1.262       .  A
N2349      O2360   1.262       .  A
N2351      O2357   1.262       .  A
N2351      O2358   1.262       .  A
C2361      C2362   1.399       .  A
C2361      C2366   1.398       .  A
C2361      H2371   1.084       .  S
C2362      C2367   1.489       .  S
C2362      C2363   1.412       .  A
C2363      C2364   1.409       .  A
C2363      N2368   1.430       .  S
C2364      C2365   1.411       .  A
C2364      H2369   1.083       .  S
C2365      C2366   1.418       .  A
C2366      N2370   1.427       .  S
C2367      C2372   1.410       .  A
C2367      C2376   1.404       .  A
N2368      O2383   1.262       .  A
N2368      O2384   1.262       .  A
N2370      O2381   1.262       .  A
N2370      O2382   1.262       .  A
C2372      C2373   1.405       .  A
C2372      N2377   1.430       .  S
C2373      C2374   1.409       .  A
C2373      H2378   1.084       .  S
C2374      C2375   1.413       .  A
C2375      C2376   1.401       .  A
C2375      N2379   1.429       .  S
C2376      H2380   1.084       .  S
N2377      O2387   1.262       .  A
N2377      O2388   1.262       .  A
N2379      O2385   1.262       .  A
N2379      O2386   1.262       .  A
C2389      C2390   1.405       .  A
C2389      C2394   1.407       .  A
C2389      H2399   1.084       .  S
C2390      C2395   1.481       .  S
C2390      C2391   1.408       .  A
C2391      C2392   1.396       .  A
C2391      N2396   1.432       .  S
C2392      C2393   1.406       .  A
C2392      H2397   1.084       .  S
C2393      C2394   1.411       .  A
C2394      N2398   1.428       .  S
C2395      C2400   1.409       .  A
C2395      C2404   1.401       .  A
N2396      O2411   1.262       .  A
N2396      O2412   1.262       .  A
N2398      O2409   1.262       .  A
N2398      O2410   1.262       .  A
C2400      C2401   1.399       .  A
C2400      N2405   1.430       .  S
C2401      C2402   1.406       .  A
C2401      H2406   1.084       .  S
C2402      C2403   1.412       .  A
C2403      C2404   1.403       .  A
C2403      N2407   1.427       .  S
C2404      H2408   1.084       .  S
N2405      O2415   1.262       .  A
N2405      O2416   1.262       .  A
N2407      O2413   1.262       .  A
N2407      O2414   1.262       .  A
C2417      C2418   1.401       .  A
C2417      C2422   1.398   1_565  A
C2417      H2427   1.084       .  S
C2418      C2423   1.475       .  S
C2418      C2419   1.407   1_565  A
C2419      C2420   1.401       .  A
C2419      N2424   1.429       .  S
C2420      C2421   1.407       .  A
C2420      H2425   1.084       .  S
C2421      C2422   1.411       .  A
C2422      N2426   1.428       .  S
C2423      C2428   1.408       .  A
C2423      C2432   1.397       .  A
N2424      O2439   1.262       .  A
N2424      O2440   1.262       .  A
N2426      O2437   1.262       .  A
N2426      O2438   1.262       .  A
C2428      C2429   1.404       .  A
C2428      N2433   1.429       .  S
C2429      C2430   1.407       .  A
C2429      H2434   1.084       .  S
C2430      C2431   1.417       .  A
C2431      C2432   1.395       .  A
C2431      N2435   1.430       .  S
C2432      H2436   1.084       .  S
N2433      O2443   1.262       .  A
N2433      O2444   1.262       .  A
N2435      O2441   1.262       .  A
N2435      O2442   1.262       .  A
C2445      C2446   1.399       .  A
C2445      C2450   1.395       .  A
C2445      H2455   1.084       .  S
C2446      C2451   1.475       .  S
C2446      C2447   1.407       .  A
C2447      C2448   1.401       .  A
C2447      N2452   1.429       .  S
C2448      C2449   1.406       .  A
C2448      H2453   1.084       .  S
C2449      C2450   1.416       .  A
C2450      N2454   1.430       .  S
C2451      C2456   1.407   1_655  A
C2451      C2460   1.401       .  A
N2452      O2467   1.262       .  A
N2452      O2468   1.262       .  A
N2454      O2465   1.262       .  A
N2454      O2466   1.262       .  A
C2456      C2457   1.395       .  A
C2456      N2461   1.429       .  S
C2457      C2458   1.404       .  A
C2457      H2462   1.084       .  S
C2458      C2459   1.414   1_455  A
C2459      C2460   1.400       .  A
C2459      N2463   1.430       .  S
C2460      H2464   1.084       .  S
N2461      O2471   1.262       .  A
N2461      O2472   1.262       .  A
N2463      O2469   1.262       .  A
N2463      O2470   1.262       .  A
C2473      C2474   1.403   1_565  A
C2473      C2478   1.405       .  A
C2473      H2483   1.084       .  S
C2474      C2479   1.479       .  S
C2474      C2475   1.408       .  A
C2475      C2476   1.396       .  A
C2475      N2480   1.430       .  S
C2476      C2477   1.403   1_545  A
C2476      H2481   1.081       .  S
C2477      C2478   1.413       .  A
C2478      N2482   1.429       .  S
C2479      C2484   1.407       .  A
C2479      C2488   1.403       .  A
N2480      O2495   1.262       .  A
N2480      O2496   1.262       .  A
N2482      O2493   1.262       .  A
N2482      O2494   1.262       .  A
C2484      C2485   1.397       .  A
C2484      N2489   1.430       .  S
C2485      C2486   1.406       .  A
C2485      H2490   1.083       .  S
C2486      C2487   1.412       .  A
C2487      C2488   1.405       .  A
C2487      N2491   1.428       .  S
C2488      H2492   1.084   1_545  S
N2489      O2499   1.262       .  A
N2489      O2500   1.262       .  A
N2491      O2497   1.262   1_545  A
N2491      O2498   1.262   1_545  A
C2501      C2502   1.402       .  A
C2501      C2506   1.401       .  A
C2501      H2511   1.084       .  S
C2502      C2507   1.483       .  S
C2502      C2503   1.411       .  A
C2503      C2504   1.401       .  A
C2503      N2508   1.429       .  S
C2504      C2505   1.403       .  A
C2504      H2509   1.084       .  S
C2505      C2506   1.412       .  A
C2506      N2510   1.428       .  S
C2507      C2512   1.411       .  A
C2507      C2516   1.404       .  A
N2508      O2523   1.262       .  A
N2508      O2524   1.261       .  A
N2510      O2521   1.262       .  A
N2510      O2522   1.262       .  A
C2512      C2513   1.399       .  A
C2512      N2517   1.429       .  S
C2513      C2514   1.401       .  A
C2513      H2518   1.084       .  S
C2514      C2515   1.408       .  A
C2515      C2516   1.402       .  A
C2515      N2519   1.429   1_565  S
C2516      H2520   1.083       .  S
N2517      O2527   1.262       .  A
N2517      O2528   1.262       .  A
N2519      O2525   1.262       .  A
N2519      O2526   1.262   1_545  A
C2529      C2530   1.405       .  A
C2529      C2534   1.403       .  A
C2529      H2539   1.083       .  S
C2530      C2535   1.491       .  S
C2530      C2531   1.410       .  A
C2531      C2532   1.400       .  A
C2531      N2536   1.429       .  S
C2532      C2533   1.407       .  A
C2532      H2537   1.082       .  S
C2533      C2534   1.416       .  A
C2534      N2538   1.430       .  S
C2535      C2540   1.413       .  A
C2535      C2544   1.407       .  A
N2536      O2551   1.262       .  A
N2536      O2552   1.262       .  A
N2538      O2549   1.262       .  A
N2538      O2550   1.262       .  A
C2540      C2541   1.400       .  A
C2540      N2545   1.429       .  S
C2541      C2542   1.400       .  A
C2541      H2546   1.084       .  S
C2542      C2543   1.408       .  A
C2543      C2544   1.403       .  A
C2543      N2547   1.429       .  S
C2544      H2548   1.083       .  S
N2545      O2555   1.262       .  A
N2545      O2556   1.262       .  A
N2547      O2553   1.262       .  A
N2547      O2554   1.262       .  A
