geometry optimzed in LAMMPS
_audit_creation_date              2020-11-30 
_audit_creation_method            'lammps2cif' 
_symmetry_space_group_name_H-M    'P1' 
_symmetry_Int_Tables_number       1 
_symmetry_cell_setting            triclinic 
loop_ 
_symmetry_equiv_pos_as_xyz 
  x,y,z 
_cell_length_a                    47.55910140080508 
_cell_length_b                    47.96656691792802 
_cell_length_c                    28.838477829236254 
_cell_angle_alpha                 89.96778477580774 
_cell_angle_beta                  89.86739009978803 
_cell_angle_gamma                 119.77652693322732 
loop_ 
_atom_site_label 
_atom_site_type_symbol 
_atom_site_fract_x 
_atom_site_fract_y 
_atom_site_fract_z 
_atom_site_charge 
C1          C  0.40398005  0.50450568  0.99910254    -0.01790
C2          C  0.15449415  0.00446639  0.00351222    -0.01790
C3          C  0.15388275  0.12904530  0.00284201    -0.01790
C4          C  0.02731625  0.13025906  0.00182807    -0.01790
C5          C  0.02914282  0.37945694  0.00211197    -0.01790
C6          C  0.40180529  0.37886953  0.99520345    -0.01790
O7          O  0.01485421  0.36467700  0.33399688    -0.57120
C8          C  0.02453915  0.35694382  0.46144525     0.75510
O9          O  0.45307139  0.29977309  0.41736279    -0.58280
C10         C  0.02215211  0.35650332  0.29619073     0.75480
C11         C  0.01307823  0.26133194  0.37741297     0.77870
Cd12       Cd  0.00537600  0.31720294  0.37973619     1.37470
O13         O  0.03964588  0.36674264  0.42323486    -0.57120
O14         O  0.03844080  0.28865579  0.38126558    -0.55930
C15         C  0.43907205  0.29766103  0.37937611     0.77830
O16         O  0.48646414  0.26103380  0.37532088    -0.58300
O17         O  0.00300180  0.32760977  0.46276043    -0.56750
O18         O  0.52462683  0.33137388  0.29773587    -0.56740
O19         O  0.45462662  0.30039196  0.34276079    -0.55910
O20         O  0.01133754  0.12757558  0.42119663    -0.57120
C21         C  0.02161392  0.14488856  0.29194486     0.75510
O22         O  0.45154543  0.13383477  0.33852416    -0.58280
C23         C  0.02103095  0.14409105  0.45788827     0.75480
C24         C  0.01264973  0.23051675  0.37589697     0.77870
Cd25       Cd  0.00359431  0.16644780  0.37470938     1.37460
O26         O  0.03905207  0.15281252  0.32811685    -0.57120
O27         O  0.03765195  0.22748981  0.37304805    -0.55930
C28         C  0.43762540  0.12108874  0.37625981     0.77830
O29         O  0.48566853  0.20494082  0.37727890    -0.58300
O30         O  0.99810830  0.15015745  0.29291081    -0.56750
O31         O  0.02380531  0.17178127  0.45588018    -0.56740
O32         O  0.45288132  0.13301572  0.41334073    -0.55910
O33         O  0.39921990  0.36549711  0.33112471    -0.57120
C34         C  0.38350188  0.35611559  0.45554344     0.75510
O35         O  0.32417060  0.26077078  0.36876623    -0.58280
C36         C  0.38588621  0.35663545  0.29199348     0.75480
C37         C  0.40863143  0.29737386  0.37757036     0.77870
Cd38       Cd  0.36178128  0.31656718  0.37446517     1.37460
O39         O  0.37369781  0.36449670  0.42001035    -0.57120
O40         O  0.39762981  0.30065874  0.33941548    -0.55930
C41         C  0.29804221  0.26113917  0.37386271     0.77830
O42         O  0.39467515  0.29842635  0.41419639    -0.58300
O43         O  0.37887069  0.32779833  0.45536759    -0.56750
O44         O  0.35942746  0.33016465  0.29141536    -0.56740
O45         O  0.30025026  0.28844770  0.37921185    -0.55910
O46         O  0.37577698  0.48900873  0.32922688    -0.57120
C47         C  0.38796254  0.00896696  0.45626312     0.75510
O48         O  0.39509772  0.07668693  0.33904687    -0.58280
C49         C  0.38540817  0.00710629  0.29368236     0.75480
C50         C  0.29903265  0.01547026  0.37547939     0.77870
Cd51       Cd  0.36335728  0.02486695  0.37517750     1.37470
O52         O  0.40196543  0.51479737  0.41735514    -0.57120
O53         O  0.30211865  0.49095172  0.36883302    -0.55930
C54         C  0.40792453  0.09071822  0.37657793     0.77830
O55         O  0.32462467  0.04183347  0.38172013    -0.58300
O56         O  0.36073113  0.00780717  0.45711545    -0.56750
O57         O  0.38141621  0.03126649  0.29459405    -0.56740
O58         O  0.39687299  0.07527876  0.41390535    -0.55910
O59         O  0.16370510  0.51115559  0.42043230    -0.57120
C60         C  0.17406159  0.00586905  0.29429339     0.75510
O61         O  0.23264689  0.07670171  0.34226802    -0.58280
C62         C  0.17382544  0.00797978  0.45950434     0.75480
C63         C  0.26822450  0.01536459  0.37587390     0.77870
Cd64       Cd  0.21296875  0.02418878  0.37675039     1.37460
O65         O  0.16470573  0.48851371  0.33059255    -0.57120
O66         O  0.24059032  0.49063126  0.37041147    -0.55930
C67         C  0.23208619  0.08974279  0.37999672     0.77830
O68         O  0.26890752  0.04171930  0.38171787    -0.58300
O69         O  0.20245480  0.02970972  0.29526872    -0.56750
O70         O  0.20094686  0.00890045  0.45955126    -0.56740
O71         O  0.22663900  0.07352450  0.41666698    -0.55910
O72         O  0.16441912  0.13110183  0.42029881    -0.57120
C73         C  0.17336881  0.14289876  0.29451409     0.75510
O74         O  0.26918824  0.20488857  0.37519010    -0.58280
C75         C  0.17401328  0.14442939  0.45935264     0.75480
C76         C  0.23245743  0.11998275  0.38033213     0.77870
Cd77       Cd  0.21304560  0.16634140  0.37645832     1.37470
O78         O  0.16414964  0.15281971  0.32904593    -0.57120
O79         O  0.22693504  0.13066772  0.41720234    -0.55930
C80         C  0.26765145  0.23036519  0.37429109     0.77830
O81         O  0.23370587  0.13409412  0.34282130    -0.58300
O82         O  0.20179827  0.14725338  0.29673149    -0.56750
O83         O  0.20126050  0.17006781  0.45973018    -0.56740
O84         O  0.23953290  0.22725421  0.37381742    -0.55910
C85         C  0.40230608  0.00149868  0.25271393    -0.01790
C86         C  0.15220557  0.99995629  0.25245686    -0.01790
C87         C  0.15196994  0.12559101  0.25272769    -0.01790
C88         C  0.02728956  0.12876695  0.24999835    -0.01790
C89         C  0.02611613  0.37551502  0.25164012    -0.01790
C90         C  0.40231779  0.37633370  0.24836206    -0.01790
O91         O  0.39026573  0.98823105  0.17129204    -0.57120
C92         C  0.38287919  0.49964259  0.04208963     0.75510
O93         O  0.32036839  0.42677465  0.09031033    -0.58280
C94         C  0.38310080  0.49744907  0.20828501     0.75480
C95         C  0.28714187  0.48770409  0.12841320     0.77870
Cd96       Cd  0.34409946  0.48099252  0.12513249     1.37470
O97         O  0.39329916  0.01676829  0.07838997    -0.57120
O98         O  0.31421007  0.01226666  0.11882134    -0.55930
C99         C  0.32685579  0.41567149  0.12587922     0.77830
O100        O  0.28748701  0.46212154  0.13744865    -0.58300
O101        O  0.35365337  0.47760586  0.04366001    -0.56750
O102        O  0.35913795  0.50221940  0.20584466    -0.56740
O103        O  0.33707676  0.43350108  0.16096088    -0.55910
O104        O  0.15049994  0.98264110  0.17309559    -0.57120
C105        C  0.17098097  0.49906885  0.04528930     0.75510
O106        O  0.23038692  0.46112658  0.13662837    -0.58280
C107        C  0.16728546  0.99445427  0.20919083     0.75480
C108        C  0.14578396  0.41282398  0.12594345     0.77870
Cd109      Cd  0.19146171  0.47872341  0.12664241     1.37460
O110        O  0.17728236  0.01492934  0.08267620    -0.57120
O111        O  0.15782547  0.42771298  0.16319193    -0.55930
C112        C  0.25598718  0.48720529  0.12830714     0.77830
O113        O  0.15837123  0.42719301  0.08836766    -0.58300
O114        O  0.17756075  0.47655800  0.04496686    -0.56750
O115        O  0.19661357  0.50103305  0.20659527    -0.56740
O116        O  0.25271958  0.01135973  0.11929779    -0.55910
O117        O  0.15378894  0.13854126  0.17083740    -0.57120
C118        C  0.17125701  0.14996984  0.04489915     0.75510
O119        O  0.16029809  0.20779885  0.09405269    -0.58280
C120        C  0.16807916  0.14591194  0.20949760     0.75480
C121        C  0.25659517  0.24214475  0.12801330     0.77870
Cd122      Cd  0.19237990  0.18733705  0.12876073     1.37470
O123        O  0.18009039  0.14014246  0.07990450    -0.57120
O124        O  0.25362228  0.21471731  0.12052561    -0.55930
C125        C  0.14653838  0.20796155  0.13142016     0.77830
O126        O  0.23100029  0.24289125  0.13672167    -0.58300
O127        O  0.17593108  0.17826284  0.04748361    -0.56750
O128        O  0.19543795  0.17147407  0.21000091    -0.56740
O129        O  0.15706772  0.20270874  0.16866124    -0.55910
O130        O  0.01554865  0.14214755  0.07983926    -0.57120
C131        C  0.03272644  0.14916717  0.20678125     0.75510
O132        O  0.10331138  0.20788845  0.09231008    -0.58280
C133        C  0.03224194  0.15205128  0.04294126     0.75480
C134        C  0.04230751  0.24499866  0.12490632     0.77870
Cd135      Cd  0.05078991  0.19003812  0.12586300     1.37460
O136        O  0.04447131  0.14414311  0.17044303    -0.57120
O137        O  0.01718704  0.21739944  0.12363531    -0.55930
C138        C  0.11664049  0.20879835  0.13050306     0.77830
O139        O  0.06928011  0.24603625  0.12721451    -0.58300
O140        O  0.02706537  0.17239624  0.20491928    -0.56750
O141        O  0.05513766  0.18078319  0.04328077    -0.56740
O142        O  0.10082750  0.20575093  0.16721972    -0.55910
O143        O  0.38833376  0.34564141  0.06722576    -0.57120
C144        C  0.38155615  0.35964355  0.20573187     0.75510
O145        O  0.31925958  0.36758860  0.09042214    -0.58280
C146        C  0.38186543  0.36210929  0.03913130     0.75480
C147        C  0.28728479  0.27261582  0.12612518     0.77870
Cd148      Cd  0.34311704  0.33648913  0.12281396     1.37470
O149        O  0.39257082  0.35297673  0.16973518    -0.57120
O150        O  0.31483079  0.27523134  0.11941181    -0.55930
C151        C  0.32703414  0.38561486  0.12568661     0.77830
O152        O  0.28669154  0.29838291  0.13085564    -0.58300
O153        O  0.35202850  0.35183150  0.20412786    -0.56750
O154        O  0.35649273  0.36296890  0.04868957    -0.56740
O155        O  0.33874854  0.37854451  0.15992388    -0.55910
O156        O  0.01621706  0.35504251  0.17181989    -0.57120
C157        C  0.03364917  0.36391571  0.04563824     0.75510
O158        O  0.10133463  0.36936687  0.08908538    -0.58280
C159        C  0.03148279  0.35927873  0.20951792     0.75480
C160        C  0.04184797  0.27522551  0.12387504     0.77870
Cd161      Cd  0.04902712  0.33818325  0.12649276     1.37460
O162        O  0.01463934  0.33492589  0.05755636    -0.57120
O163        O  0.01654448  0.27747659  0.12864539    -0.55930
C164        C  0.11540812  0.38288849  0.12644121     0.77830
O165        O  0.06823936  0.30105201  0.11888472    -0.58300
O166        O  0.05769092  0.37957537  0.07180665    -0.56750
O167        O  0.05202718  0.34991815  0.20961992    -0.56740
O168        O  0.09990133  0.37226821  0.16399254    -0.55910
C169        C  0.43525410  0.34804216  0.25267463    -0.25620
C170        C  0.43478621  0.37631578  0.24084783    -0.13700
C171        C  0.46152024  0.39840748  0.21284482     0.36930
C172        C  0.49105552  0.39809632  0.21558157    -0.25070
C173        C  0.49352617  0.37482799  0.24256100    -0.14310
C174        C  0.46366498  0.34634476  0.25060234     0.38020
N175        N  0.46189381  0.31555173  0.25291934    -0.88560
H176        H  0.41290170  0.32646345  0.26108693     0.19130
H177        H  0.51202008  0.41614971  0.19693162     0.19120
N178        N  0.45987090  0.42107430  0.18189621    -0.87590
H179        H  0.46874949  0.31105602  0.22060446     0.36500
H180        H  0.43795507  0.29720966  0.25772521     0.41600
H181        H  0.43619194  0.41670073  0.17893666     0.41220
H182        H  0.46597724  0.41696525  0.14875685     0.36110
C183        C  0.11822780  0.15262127  0.26454725    -0.25620
C184        C  0.11826378  0.12371902  0.25616920    -0.13700
C185        C  0.08795301  0.09637459  0.24480698     0.36930
C186        C  0.05928614  0.09829837  0.24646419    -0.25070
C187        C  0.05921839  0.12721903  0.25585498    -0.14310
C188        C  0.09015708  0.15514242  0.26386987     0.38020
N189        N  0.09521724  0.18717721  0.26914496    -0.88560
H190        H  0.14109794  0.17456828  0.26941703     0.19130
H191        H  0.03709685  0.07711198  0.23653531     0.19120
N192        N  0.08609868  0.06734924  0.22777938    -0.87590
H193        H  0.10270566  0.19454080  0.30320545     0.36500
H194        H  0.07487414  0.18929006  0.26310479     0.41600
H195        H  0.09675832  0.07239758  0.19484133     0.41220
H196        H  0.06207546  0.04920874  0.22324612     0.36110
C197        C  0.13791866  0.04085284  0.28668045    -0.25620
C198        C  0.14974773  0.03147847  0.24805819    -0.13700
C199        C  0.16247388  0.05399495  0.21050859     0.36930
C200        C  0.16248761  0.08326302  0.21249484    -0.25070
C201        C  0.15020509  0.09219167  0.25068325    -0.14310
C202        C  0.13771771  0.07016145  0.28818130     0.38020
N203        N  0.12480844  0.07751684  0.32829382    -0.88560
H204        H  0.12892435  0.02517131  0.31667020     0.19130
H205        H  0.17311588  0.09921863  0.18324941     0.19120
N206        N  0.17669836  0.04862102  0.17017441    -0.87590
H207        H  0.10073915  0.05934201  0.33251511     0.36500
H208        H  0.13785651  0.07719378  0.35722574     0.41600
H209        H  0.20079179  0.06708644  0.16766364     0.41220
H210        H  0.16425549  0.04979881  0.14105752     0.36110
C211        C  0.08922196  0.46788291  0.26015659    -0.25620
C212        C  0.11909245  0.46804823  0.25955448    -0.13700
C213        C  0.11715596  0.43733736  0.26443562     0.36930
C214        C  0.08692864  0.40918926  0.26391041    -0.25070
C215        C  0.05736512  0.40898857  0.25913259    -0.14310
C216        C  0.05904615  0.43922272  0.26460707     0.38020
N217        N  0.03119142  0.44122274  0.27905907    -0.88560
H218        H  0.08873112  0.49006297  0.25832749     0.19130
H219        H  0.08682107  0.38668662  0.26738074     0.19120
N220        N  0.14477326  0.43288880  0.27070063    -0.87590
H221        H  0.03687252  0.46512478  0.28303607     0.36500
H222        H  0.02425840  0.43047619  0.31176407     0.41600
H223        H  0.16693709  0.45359842  0.26620674     0.41220
H224        H  0.14392469  0.41678888  0.24566365     0.36110
C225        C  0.44607105  0.05274430  0.20972755    -0.25560
C226        C  0.43672268  0.03261542  0.24930632    -0.13700
C227        C  0.45834292  0.04410043  0.28756781     0.36930
C228        C  0.48727565  0.07404879  0.28543580    -0.25070
C229        C  0.49597508  0.09463960  0.24641362    -0.14310
C230        C  0.47433719  0.08301369  0.20794087     0.38020
N231        N  0.47975108  0.10158761  0.16664249    -0.88560
H232        H  0.43091519  0.04612509  0.17934263     0.19130
H233        H  0.00291555  0.08179943  0.31555425     0.19120
N234        N  0.45070659  0.02576679  0.32955667    -0.87590
H235        H  0.46004528  0.10527028  0.16182020     0.36500
H236        H  0.48076373  0.08835470  0.13850612     0.41600
H237        H  0.45009369  0.04003641  0.35648257     0.41220
H238        H  0.46951926  0.02104557  0.33644835     0.36110
C239        C  0.37496015  0.41008089  0.26014631    -0.25620
C240        C  0.40426752  0.40963132  0.25653895    -0.13700
C241        C  0.43286139  0.43948471  0.26439201     0.36930
C242        C  0.43197587  0.46846671  0.26081876    -0.25070
C243        C  0.40255819  0.46910198  0.25902557    -0.14310
C244        C  0.37334988  0.43848685  0.26189037     0.38020
N245        N  0.34137795  0.43443592  0.26778089    -0.88560
H246        H  0.35232053  0.38765042  0.26206256     0.19130
H247        H  0.45485098  0.49054489  0.26054428     0.19120
N248        N  0.46224030  0.44062539  0.27907417    -0.87590
H249        H  0.32606255  0.41854189  0.24261687     0.36500
H250        H  0.34042981  0.45538175  0.26324668     0.41600
H251        H  0.45765536  0.42899943  0.31117520     0.41220
H252        H  0.48061384  0.46430458  0.28449013     0.36110
C253        C  0.48532976  0.38646086  0.46061766    -0.25620
C254        C  0.49781737  0.38292980  0.00340262    -0.13700
C255        C  0.48127026  0.38444303  0.04404370     0.36930
C256        C  0.45260723  0.38611188  0.04010700    -0.25070
C257        C  0.43692753  0.38305875  0.99727829    -0.14310
C258        C  0.45536344  0.38572043  0.45678608     0.38020
N259        N  0.44387810  0.38774136  0.41149803    -0.88560
H260        H  0.49869873  0.38889105  0.42904168     0.19130
H261        H  0.44222837  0.38918169  0.07175456     0.19120
N262        N  0.49254887  0.38497900  0.09020872    -0.87590
H263        H  0.45949400  0.38826206  0.38549284     0.36500
H264        H  0.44390314  0.40947855  0.40922313     0.41600
H265        H  0.51681878  0.40267229  0.09335157     0.41220
H266        H  0.48923889  0.36240179  0.09844977     0.36110
C267        C  0.06839896  0.11579214  0.03609606    -0.25620
C268        C  0.05987000  0.12901878  0.49832165    -0.13700
C269        C  0.08484307  0.14508633  0.46394135     0.36930
C270        C  0.11358669  0.14387568  0.46581316    -0.25070
C271        C  0.12043870  0.12790637  0.50115956    -0.14310
C272        C  0.09702575  0.11369856  0.03699969     0.38020
N273        N  0.10232466  0.09724802  0.07465607    -0.88560
H274        H  0.05249512  0.10707808  0.06600994     0.19130
H275        H  0.13134936  0.15729812  0.43934666     0.19120
N276        N  0.08448713  0.16589246  0.42866718    -0.87590
H277        H  0.08075313  0.08323600  0.09290865     0.36500
H278        H  0.11789698  0.11470762  0.09792294     0.41600
H279        H  0.08152934  0.18416990  0.44334208     0.41220
H280        H  0.06749828  0.15274788  0.40333957     0.36110
C281        C  0.12708362  0.03825950  0.98670292    -0.25620
C282        C  0.15350045  0.03643412  0.00561261    -0.13700
C283        C  0.18111647  0.06593662  0.51781917     0.36930
C284        C  0.17982188  0.09449351  0.51750211    -0.25070
C285        C  0.15159615  0.09553672  0.00535238    -0.14310
C286        C  0.12548425  0.06685808  0.98678534     0.38020
N287        N  0.09815148  0.06680921  0.96549357    -0.88560
H288        H  0.10766898  0.01735290  0.97018958     0.19130
H289        H  0.20194391  0.11652280  0.52537189     0.19120
N290        N  0.21131169  0.06757797  0.52857479    -0.87590
H291        H  0.08062456  0.04361444  0.95567954     0.36500
H292        H  0.10627407  0.08020520  0.93490134     0.41600
H293        H  0.21819279  0.07723740  0.56184810     0.41220
H294        H  0.22888530  0.08351713  0.50540763     0.36110
C295        C  0.06269986  0.44000744  0.01826135    -0.25620
C296        C  0.06069915  0.41279675  0.99621470    -0.13700
C297        C  0.09066327  0.41568297  0.48098021     0.36930
C298        C  0.11886189  0.44594245  0.47981411    -0.25070
C299        C  0.12064450  0.47331744  0.00086684    -0.14310
C300        C  0.09236749  0.46831444  0.02540033     0.38020
N301        N  0.09290282  0.48935005  0.06132803    -0.88560
H302        H  0.04162253  0.43844408  0.03489590     0.19130
H303        H  0.14065757  0.44733399  0.46584021     0.19120
N304        N  0.09326489  0.38787995  0.46911245    -0.87590
H305        H  0.08087841  0.50125099  0.04959584     0.36500
H306        H  0.11626507  0.00597061  0.07182866     0.41600
H307        H  0.08923593  0.37420421  0.49910641     0.41220
H308        H  0.11661856  0.39433313  0.45777233     0.36110
C309        C  0.49477824  0.06799234  0.01936317    -0.25620
C310        C  0.49538720  0.09726823  0.00980301    -0.13700
C311        C  0.46453767  0.09553488  0.50727420     0.36930
C312        C  0.43629374  0.06555411  0.50279506    -0.25070
C313        C  0.43652555  0.03641456  0.00700166    -0.14310
C314        C  0.46529515  0.03897114  0.02524668     0.38020
N315        N  0.46464146  0.01279311  0.05045674    -0.88560
H316        H  0.01651745  0.06676553  0.02369918     0.19130
H317        H  0.41348129  0.06490676  0.49725100     0.19120
N318        N  0.46184453  0.12414150  0.50716642    -0.87590
H319        H  0.48781927  0.01899387  0.06214518     0.36500
H320        H  0.45032525  0.00878075  0.07998508     0.41600
H321        H  0.46688225  0.13371588  0.54053750     0.41220
H322        H  0.43796068  0.11856254  0.50093551     0.36110
C323        C  0.43229282  0.44103370  0.48242505    -0.25620
C324        C  0.40278295  0.41179753  0.48805338    -0.13700
C325        C  0.37402660  0.41395659  0.98412526     0.36930
C326        C  0.37566041  0.44386115  0.98643276    -0.25070
C327        C  0.40525464  0.47295763  0.48939969    -0.14310
C328        C  0.43302449  0.47071828  0.47725766     0.38020
N329        N  0.46074053  0.49734601  0.45609017    -0.88560
H330        H  0.45494376  0.44109960  0.47933111     0.19130
H331        H  0.35306966  0.44403675  0.98433647     0.19120
N332        N  0.34291207  0.38620183  0.97627570    -0.87590
H333        H  0.47849138  0.49129479  0.44804983     0.36500
H334        H  0.45319303  0.00225674  0.42465197     0.41600
H335        H  0.33428677  0.38917545  0.94439329     0.41220
H336        H  0.32688705  0.38547086  0.00176240     0.36110
C337        C  0.40398066  0.50450600  0.49910317    -0.01790
C338        C  0.15449451  0.00446661  0.50351189    -0.01790
C339        C  0.15388322  0.12904551  0.50284183    -0.01790
C340        C  0.02731685  0.13025943  0.50182828    -0.01790
C341        C  0.02914325  0.37945710  0.50211199    -0.01790
C342        C  0.40180571  0.37886979  0.49520408    -0.01790
O343        O  0.01485386  0.36467693  0.83399669    -0.57120
C344        C  0.02453870  0.35694366  0.96144523     0.75510
O345        O  0.45307060  0.29977241  0.91736233    -0.58280
C346        C  0.02215182  0.35650323  0.79619059     0.75480
C347        C  0.01307759  0.26133176  0.87741277     0.77870
Cd348      Cd  0.00537551  0.31720284  0.87973606     1.37470
O349        O  0.03964546  0.36674246  0.92323487    -0.57120
O350        O  0.03844018  0.28865558  0.88126560    -0.55930
C351        C  0.43907155  0.29766093  0.87937557     0.77830
O352        O  0.48646354  0.26103368  0.87532040    -0.58300
O353        O  0.00300124  0.32760964  0.96276034    -0.56750
O354        O  0.52462652  0.33137378  0.79773582    -0.56740
O355        O  0.45462645  0.30039253  0.84276035    -0.55910
O356        O  0.01133647  0.12757518  0.92119663    -0.57120
C357        C  0.02161341  0.14488855  0.79194485     0.75510
O358        O  0.45154485  0.13383451  0.83852396    -0.58280
C359        C  0.02103032  0.14409075  0.95788813     0.75480
C360        C  0.01264904  0.23051656  0.87589687     0.77870
Cd361      Cd  0.00359362  0.16644761  0.87470936     1.37460
O362        O  0.03905146  0.15281241  0.82811692    -0.57120
O363        O  0.03765125  0.22748960  0.87304810    -0.55930
C364        C  0.43762470  0.12108857  0.87625958     0.77830
O365        O  0.48566783  0.20494064  0.87727876    -0.58300
O366        O  0.99810781  0.15015747  0.79291071    -0.56750
O367        O  0.02380502  0.17178112  0.95588000    -0.56740
O368        O  0.45288049  0.13301565  0.91334057    -0.55910
O369        O  0.39921967  0.36549694  0.83112429    -0.57120
C370        C  0.38350148  0.35611534  0.95554280     0.75510
O371        O  0.32417004  0.26077059  0.86876535    -0.58280
C372        C  0.38588609  0.35663548  0.79199298     0.75480
C373        C  0.40863087  0.29737363  0.87756972     0.77870
Cd374      Cd  0.36178080  0.31656699  0.87446446     1.37460
O375        O  0.37369720  0.36449639  0.92000988    -0.57120
O376        O  0.39762944  0.30065874  0.83941482    -0.55930
C377        C  0.29804167  0.26113900  0.87386209     0.77830
O378        O  0.39467438  0.29842580  0.91419571    -0.58300
O379        O  0.37887049  0.32779815  0.95536678    -0.56750
O380        O  0.35942727  0.33016474  0.79141462    -0.56740
O381        O  0.30024976  0.28844754  0.87921129    -0.55910
O382        O  0.37577672  0.48900873  0.82922678    -0.57120
C383        C  0.38796186  0.00896661  0.95626258     0.75510
O384        O  0.39509711  0.07668675  0.83904654    -0.58280
C385        C  0.38540782  0.00710620  0.79368216     0.75480
C386        C  0.29903202  0.01547002  0.87547905     0.77870
Cd387      Cd  0.36335666  0.02486675  0.87517710     1.37470
O388        O  0.40196474  0.51479709  0.91735459    -0.57120
O389        O  0.30211802  0.49095150  0.86883247    -0.55930
C390        C  0.40792384  0.09071804  0.87657763     0.77830
O391        O  0.32462404  0.04183321  0.88171988    -0.58300
O392        O  0.36073044  0.00780680  0.95711501    -0.56750
O393        O  0.38141563  0.03126626  0.79459361    -0.56740
O394        O  0.39687224  0.07527857  0.91390503    -0.55910
O395        O  0.16370458  0.51115541  0.92043258    -0.57120
C396        C  0.17406118  0.00586901  0.79429342     0.75510
O397        O  0.23264634  0.07670154  0.84226817    -0.58280
C398        C  0.17382500  0.00797960  0.95950457     0.75480
C399        C  0.26822388  0.01536436  0.87587374     0.77870
Cd400      Cd  0.21296820  0.02418862  0.87675051     1.37460
O401        O  0.16470523  0.48851364  0.83059255    -0.57120
O402        O  0.24058969  0.49063106  0.87041127    -0.55930
C403        C  0.23208568  0.08974264  0.87999686     0.77830
O404        O  0.26890693  0.04171906  0.88171794    -0.58300
O405        O  0.20245439  0.02970968  0.79526887    -0.56750
O406        O  0.20094643  0.00890029  0.95955136    -0.56740
O407        O  0.22663849  0.07352436  0.91666713    -0.55910
O408        O  0.16441872  0.13110141  0.92029903    -0.57120
C409        C  0.17336823  0.14289853  0.79451419     0.75510
O410        O  0.26918769  0.20488839  0.87518990    -0.58280
C411        C  0.17401279  0.14442912  0.95935277     0.75480
C412        C  0.23245694  0.11998261  0.88033225     0.77870
Cd413      Cd  0.21304505  0.16634119  0.87645839     1.37470
O414        O  0.16414904  0.15281947  0.82904604    -0.57120
O415        O  0.22693463  0.13066764  0.91720247    -0.55930
C416        C  0.26765090  0.23036501  0.87429076     0.77830
O417        O  0.23370531  0.13409393  0.84282139    -0.58300
O418        O  0.20179767  0.14725310  0.79673165    -0.56750
O419        O  0.20125989  0.17006769  0.95973019    -0.56740
O420        O  0.23953235  0.22725402  0.87381725    -0.55910
C421        C  0.40230585  0.00149860  0.75271386    -0.01790
C422        C  0.15220530  0.99995628  0.75245676    -0.01790
C423        C  0.15196943  0.12559089  0.75272769    -0.01790
C424        C  0.02728911  0.12876697  0.74999836    -0.01790
C425        C  0.02611593  0.37551492  0.75163993    -0.01790
C426        C  0.40231780  0.37633394  0.74836175    -0.01790
O427        O  0.39026531  0.98823026  0.67129214    -0.57120
C428        C  0.38287967  0.49964282  0.54209017     0.75510
O429        O  0.32037191  0.42677607  0.59030737    -0.58280
C430        C  0.38310059  0.49744874  0.70828487     0.75480
C431        C  0.28714178  0.48770420  0.62841220     0.77870
Cd432      Cd  0.34409923  0.48099229  0.62513248     1.37470
O433        O  0.39329971  0.01676796  0.57839101    -0.57120
O434        O  0.31421013  0.01226683  0.61882121    -0.55930
C435        C  0.32685446  0.41567091  0.62587849     0.77830
O436        O  0.28748670  0.46212142  0.63744674    -0.58300
O437        O  0.35365363  0.47760651  0.54365994    -0.56750
O438        O  0.35913799  0.50221943  0.70584426    -0.56740
O439        O  0.33707100  0.43349870  0.66096250    -0.55910
O440        O  0.15050001  0.98264174  0.67309518    -0.57120
C441        C  0.17098121  0.49906907  0.54528909     0.75510
O442        O  0.23038688  0.46112677  0.63662723    -0.58280
C443        C  0.16728530  0.99445434  0.70919077     0.75480
C444        C  0.14578405  0.41282425  0.62594353     0.77870
Cd445      Cd  0.19146175  0.47872368  0.62664234     1.37460
O446        O  0.17728256  0.01492962  0.58267595    -0.57120
O447        O  0.15782562  0.42771327  0.66319197    -0.55930
C448        C  0.25598717  0.48720553  0.62830642     0.77830
O449        O  0.15837118  0.42719329  0.58836770    -0.58300
O450        O  0.17756089  0.47655816  0.54496682    -0.56750
O451        O  0.19661329  0.50103267  0.70659558    -0.56740
O452        O  0.25271966  0.01136013  0.61929789    -0.55910
O453        O  0.15378870  0.13854118  0.67083737    -0.57120
C454        C  0.17125741  0.14996994  0.54489906     0.75510
O455        O  0.16029798  0.20779849  0.59405281    -0.58280
C456        C  0.16807878  0.14591186  0.70949768     0.75480
C457        C  0.25659509  0.24214456  0.62801303     0.77870
Cd458      Cd  0.19237992  0.18733688  0.62876082     1.37470
O459        O  0.18009072  0.14014247  0.57990440    -0.57120
O460        O  0.25362235  0.21471706  0.62052655    -0.55930
C461        C  0.14653846  0.20796142  0.63142035     0.77830
O462        O  0.23100011  0.24289109  0.63672052    -0.58300
O463        O  0.17593141  0.17826290  0.54748367    -0.56750
O464        O  0.19543761  0.17147395  0.71000113    -0.56740
O465        O  0.15706795  0.20270879  0.66866142    -0.55910
O466        O  0.01554914  0.14214778  0.57983944    -0.57120
C467        C  0.03272611  0.14916722  0.70678128     0.75510
O468        O  0.10331159  0.20788868  0.59231043    -0.58280
C469        C  0.03224245  0.15205161  0.54294147     0.75480
C470        C  0.04230776  0.24499881  0.62490657     0.77870
Cd471      Cd  0.05079011  0.19003829  0.62586325     1.37460
O472        O  0.04447065  0.14414287  0.67044296    -0.57120
O473        O  0.01718730  0.21739961  0.62363457    -0.55930
C474        C  0.11664062  0.20879830  0.63050337     0.77830
O475        O  0.06928031  0.24603638  0.62721576    -0.58300
O476        O  0.02706554  0.17239661  0.70491948    -0.56750
O477        O  0.05513806  0.18078357  0.54328100    -0.56740
O478        O  0.10082758  0.20575071  0.66722005    -0.55910
O479        O  0.38833464  0.34564282  0.56722762    -0.57120
C480        C  0.38155613  0.35964419  0.70573146     0.75510
O481        O  0.31926287  0.36759061  0.59041913    -0.58280
C482        C  0.38186570  0.36210959  0.53913189     0.75480
C483        C  0.28728461  0.27261566  0.62612463     0.77870
Cd484      Cd  0.34311659  0.33648914  0.62281405     1.37470
O485        O  0.39257060  0.35297708  0.66973484    -0.57120
O486        O  0.31483081  0.27523128  0.61941297    -0.55930
C487        C  0.32703265  0.38561419  0.62568610     0.77830
O488        O  0.28669109  0.29838272  0.63085331    -0.58300
O489        O  0.35202862  0.35183262  0.70412741    -0.56750
O490        O  0.35649217  0.36296802  0.54868878    -0.56740
O491        O  0.33874250  0.37854126  0.65992631    -0.55910
O492        O  0.01621707  0.35504242  0.67181973    -0.57120
C493        C  0.03364960  0.36391587  0.54563822     0.75510
O494        O  0.10133487  0.36936692  0.58908557    -0.58280
C495        C  0.03148268  0.35927863  0.70951784     0.75480
C496        C  0.04184825  0.27522567  0.62387526     0.77870
Cd497      Cd  0.04902734  0.33818335  0.62649284     1.37460
O498        O  0.01463972  0.33492607  0.55755637    -0.57120
O499        O  0.01654467  0.27747671  0.62864456    -0.55930
C500        C  0.11540826  0.38288871  0.62644137     0.77830
O501        O  0.06823974  0.30105219  0.61888592    -0.58300
O502        O  0.05769138  0.37957550  0.57180661    -0.56750
O503        O  0.05202709  0.34991806  0.70962000    -0.56740
O504        O  0.09990143  0.37226854  0.66399270    -0.55910
C505        C  0.43525393  0.34804217  0.75267408    -0.25620
C506        C  0.43478614  0.37631587  0.74084737    -0.13700
C507        C  0.46152019  0.39840752  0.71284436     0.36930
C508        C  0.49105542  0.39809626  0.71558109    -0.25070
C509        C  0.49352599  0.37482791  0.74256058    -0.14310
C510        C  0.46366477  0.34634470  0.75060183     0.38020
N511        N  0.46189355  0.31555165  0.75291878    -0.88560
H512        H  0.41290150  0.32646348  0.76108631     0.19130
H513        H  0.51202001  0.41614962  0.69693117     0.19120
N514        N  0.45987095  0.42107443  0.68189584    -0.87590
H515        H  0.46874923  0.31105596  0.72060389     0.36500
H516        H  0.43795479  0.29720961  0.75772461     0.41600
H517        H  0.43619202  0.41670099  0.67893638     0.41220
H518        H  0.46597723  0.41696537  0.64875644     0.36110
C519        C  0.11822732  0.15262118  0.76454740    -0.25620
C520        C  0.11826329  0.12371895  0.75616908    -0.13700
C521        C  0.08795255  0.09637461  0.74480649     0.36930
C522        C  0.05928568  0.09829840  0.74646379    -0.25070
C523        C  0.05921792  0.12721900  0.75585500    -0.14310
C524        C  0.09015661  0.15514234  0.76387011     0.38020
N525        N  0.09521679  0.18717712  0.76914548    -0.88560
H526        H  0.14109745  0.17456815  0.76941735     0.19130
H527        H  0.03709641  0.07711208  0.73653464     0.19120
N528        N  0.08609828  0.06734939  0.72777846    -0.87590
H529        H  0.10270508  0.19454054  0.80320606     0.36500
H530        H  0.07487373  0.18929004  0.76310521     0.41600
H531        H  0.09675814  0.07239798  0.69484055     0.41220
H532        H  0.06207508  0.04920896  0.72324479     0.36110
C533        C  0.13791797  0.04085260  0.78668014    -0.25620
C534        C  0.14974747  0.03147847  0.74805812    -0.13700
C535        C  0.16247415  0.05399524  0.71050892     0.36930
C536        C  0.16248762  0.08326318  0.71249508    -0.25070
C537        C  0.15020458  0.09219155  0.75068317    -0.14310
C538        C  0.13771689  0.07016116  0.78818098     0.38020
N539        N  0.12480723  0.07751633  0.82829327    -0.88560
H540        H  0.12892340  0.02517092  0.81666972     0.19130
H541        H  0.17311628  0.09921900  0.68324996     0.19120
N542        N  0.17669965  0.04862186  0.67017542    -0.87590
H543        H  0.10073793  0.05934144  0.83251412     0.36500
H544        H  0.13785507  0.07719320  0.85722542     0.41600
H545        H  0.20079307  0.06708743  0.66766574     0.41220
H546        H  0.16425737  0.04979983  0.64105794     0.36110
C547        C  0.08922167  0.46788282  0.76015608    -0.25620
C548        C  0.11909218  0.46804818  0.75955418    -0.13700
C549        C  0.11715573  0.43733734  0.76443546     0.36930
C550        C  0.08692843  0.40918920  0.76391033    -0.25070
C551        C  0.05736489  0.40898847  0.75913241    -0.14310
C552        C  0.05904588  0.43922262  0.76460670     0.38020
N553        N  0.03119116  0.44122264  0.77905871    -0.88560
H554        H  0.08873077  0.49006284  0.75832672     0.19130
H555        H  0.08682088  0.38668659  0.76738080     0.19120
N556        N  0.14477304  0.43288881  0.77070059    -0.87590
H557        H  0.03687224  0.46512468  0.78303560     0.36500
H558        H  0.02425819  0.43047615  0.81176376     0.41600
H559        H  0.16693686  0.45359845  0.76620677     0.41220
H560        H  0.14392453  0.41678891  0.74566363     0.36110
C561        C  0.44607053  0.05274440  0.70972759    -0.25560
C562        C  0.43672235  0.03261542  0.74930623    -0.13700
C563        C  0.45834263  0.04410039  0.78756766     0.36930
C564        C  0.48727532  0.07404876  0.78543565    -0.25070
C565        C  0.49597462  0.09463965  0.74641359    -0.14310
C566        C  0.47433657  0.08301388  0.70794101     0.38020
N567        N  0.47975012  0.10158809  0.66664302    -0.88560
H568        H  0.43091454  0.04612520  0.67934279     0.19130
H569        H  0.00291530  0.08179935  0.81555402     0.19120
N570        N  0.45070639  0.02576666  0.82955643    -0.87590
H571        H  0.46004420  0.10527065  0.66182134     0.36500
H572        H  0.48076270  0.08835543  0.63850625     0.41600
H573        H  0.45009349  0.04003622  0.85648245     0.41220
H574        H  0.46951910  0.02104548  0.83644795     0.36110
C575        C  0.37496026  0.41008102  0.76014716    -0.25620
C576        C  0.40426763  0.40963154  0.75653909    -0.13700
C577        C  0.43286153  0.43948497  0.76439166     0.36930
C578        C  0.43197590  0.46846689  0.76081845    -0.25070
C579        C  0.40255814  0.46910204  0.75902573    -0.14310
C580        C  0.37334989  0.43848691  0.76189111     0.38020
N581        N  0.34137801  0.43443596  0.76778230    -0.88560
H582        H  0.35232068  0.38765051  0.76206392     0.19130
H583        H  0.45485098  0.49054511  0.76054351     0.19120
N584        N  0.46224060  0.44062576  0.77907330    -0.87590
H585        H  0.32606212  0.41854099  0.74261953     0.36500
H586        H  0.34042964  0.45538154  0.76324636     0.41600
H587        H  0.45765593  0.42899991  0.81117438     0.41220
H588        H  0.48061414  0.46430499  0.78448898     0.36110
C589        C  0.48532950  0.38646086  0.96061745    -0.25620
C590        C  0.49781777  0.38292991  0.50340276    -0.13700
C591        C  0.48127082  0.38444332  0.54404392     0.36930
C592        C  0.45260780  0.38611221  0.54010737    -0.25070
C593        C  0.43692793  0.38305892  0.49727878    -0.14310
C594        C  0.45536315  0.38572035  0.95678570     0.38020
N595        N  0.44387785  0.38774120  0.91149758    -0.88560
H596        H  0.49869857  0.38889114  0.92904155     0.19130
H597        H  0.44222917  0.38918229  0.57175495     0.19120
N598        N  0.49254957  0.38497941  0.59020887    -0.87590
H599        H  0.45949382  0.38826197  0.88549247     0.36500
H600        H  0.44390279  0.40947834  0.90922260     0.41600
H601        H  0.51681951  0.40267267  0.59335153     0.41220
H602        H  0.48923956  0.36240220  0.59845000     0.36110
C603        C  0.06839948  0.11579232  0.53609605    -0.25620
C604        C  0.05986936  0.12901830  0.99832140    -0.13700
C605        C  0.08484225  0.14508541  0.96394072     0.36930
C606        C  0.11358597  0.14387497  0.96581281    -0.25070
C607        C  0.12043820  0.12790611  0.00115965    -0.14310
C608        C  0.09702618  0.11369860  0.53699949     0.38020
N609        N  0.10232489  0.09724763  0.57465546    -0.88560
H610        H  0.05249557  0.10707810  0.56600986     0.19130
H611        H  0.13134849  0.15729710  0.93934599     0.19120
N612        N  0.08448591  0.16589067  0.92866548    -0.87590
H613        H  0.08075342  0.08323593  0.59290836     0.36500
H614        H  0.11789765  0.11470696  0.59792227     0.41600
H615        H  0.08152833  0.18416850  0.94333938     0.41220
H616        H  0.06749677  0.15274542  0.90333855     0.36110
C617        C  0.12708407  0.03825976  0.48670241    -0.25620
C618        C  0.15350087  0.03643435  0.50561216    -0.13700
C619        C  0.18111604  0.06593642  0.01781957     0.36930
C620        C  0.17982143  0.09449331  0.01750246    -0.25070
C621        C  0.15159661  0.09553694  0.50535204    -0.14310
C622        C  0.12548473  0.06685835  0.48678487     0.38020
N623        N  0.09815200  0.06680953  0.46549307    -0.88560
H624        H  0.10766943  0.01735317  0.47018904     0.19130
H625        H  0.20194346  0.11652261  0.02537216     0.19120
N626        N  0.21131128  0.06757781  0.02857515    -0.87590
H627        H  0.08062510  0.04361479  0.45567889     0.36500
H628        H  0.10627464  0.08020562  0.43490092     0.41600
H629        H  0.21819240  0.07723727  0.06184844     0.41220
H630        H  0.22888486  0.08351694  0.00540794     0.36110
C631        C  0.06270023  0.44000766  0.51826111    -0.25620
C632        C  0.06069956  0.41279692  0.49621466    -0.13700
C633        C  0.09066286  0.41568278  0.98098028     0.36930
C634        C  0.11886151  0.44594225  0.97981435    -0.25070
C635        C  0.12064485  0.47331768  0.50086648    -0.14310
C636        C  0.09236784  0.46831469  0.52539995     0.38020
N637        N  0.09290315  0.48935038  0.56132752    -0.88560
H638        H  0.04162290  0.43844432  0.53489561     0.19130
H639        H  0.14065720  0.44733378  0.96584044     0.19120
N640        N  0.09326445  0.38787976  0.96911241    -0.87590
H641        H  0.08087874  0.50125130  0.54959522     0.36500
H642        H  0.11626539  0.00597095  0.57182816     0.41600
H643        H  0.08923541  0.37420395  0.99910631     0.41220
H644        H  0.11661813  0.39433293  0.95777237     0.36110
C645        C  0.49477888  0.06799267  0.51936321    -0.25620
C646        C  0.49538781  0.09726857  0.50980319    -0.13700
C647        C  0.46453707  0.09553455  0.00727379     0.36930
C648        C  0.43629318  0.06555379  0.00279432    -0.25070
C649        C  0.43652613  0.03641489  0.50700239    -0.14310
C650        C  0.46529582  0.03897150  0.52524706     0.38020
N651        N  0.46464226  0.01279353  0.55045711    -0.88560
H652        H  0.01651808  0.06676581  0.52369882     0.19130
H653        H  0.41348075  0.06490646  0.99725012     0.19120
N654        N  0.46184393  0.12414116  0.00716615    -0.87590
H655        H  0.48782013  0.01899431  0.56214529     0.36500
H656        H  0.45032621  0.00878125  0.57998561     0.41600
H657        H  0.46688165  0.13371549  0.04053727     0.41220
H658        H  0.43796007  0.11856221  0.00093527     0.36110
C659        C  0.43229227  0.44103342  0.98242435    -0.25620
C660        C  0.40278245  0.41179724  0.98805279    -0.13700
C661        C  0.37402715  0.41395696  0.48412563     0.36930
C662        C  0.37566101  0.44386152  0.48643329    -0.25070
C663        C  0.40525403  0.47295730  0.98939905    -0.14310
C664        C  0.43302389  0.47071799  0.97725702     0.38020
N665        N  0.46073993  0.49734577  0.95608962    -0.88560
H666        H  0.45494323  0.44109937  0.97933036     0.19130
H667        H  0.35307029  0.44403717  0.48433692     0.19120
N668        N  0.34291267  0.38620230  0.47627539    -0.87590
H669        H  0.47849082  0.49129459  0.94804927     0.36500
H670        H  0.45319245  0.00225652  0.92465143     0.41600
H671        H  0.33428775  0.38917614  0.44439278     0.41220
H672        H  0.32688738  0.38547128  0.50176167     0.36110
C673        C  0.40398005  0.00450568  0.99910254    -0.01790
C674        C  0.15449415  0.50446639  0.00351222    -0.01790
C675        C  0.15388275  0.62904530  0.00284201    -0.01790
C676        C  0.02731625  0.63025906  0.00182807    -0.01790
C677        C  0.02914282  0.87945694  0.00211197    -0.01790
C678        C  0.40180529  0.87886953  0.99520345    -0.01790
O679        O  0.01485420  0.86467700  0.33399689    -0.57120
C680        C  0.02453915  0.85694382  0.46144525     0.75510
O681        O  0.45307139  0.79977309  0.41736279    -0.58280
C682        C  0.02215211  0.85650332  0.29619073     0.75480
C683        C  0.01307823  0.76133194  0.37741297     0.77870
Cd684      Cd  0.00537600  0.81720294  0.37973619     1.37470
O685        O  0.03964588  0.86674264  0.42323487    -0.57120
O686        O  0.03844080  0.78865579  0.38126558    -0.55930
C687        C  0.43907205  0.79766103  0.37937611     0.77830
O688        O  0.48646414  0.76103380  0.37532088    -0.58300
O689        O  0.00300180  0.82760977  0.46276043    -0.56750
O690        O  0.52462683  0.83137388  0.29773587    -0.56740
O691        O  0.45462662  0.80039196  0.34276079    -0.55910
O692        O  0.01133754  0.62757558  0.42119663    -0.57120
C693        C  0.02161392  0.64488856  0.29194485     0.75510
O694        O  0.45154543  0.63383477  0.33852415    -0.58280
C695        C  0.02103095  0.64409105  0.45788827     0.75480
C696        C  0.01264973  0.73051675  0.37589697     0.77870
Cd697      Cd  0.00359431  0.66644780  0.37470938     1.37460
O698        O  0.03905207  0.65281252  0.32811684    -0.57120
O699        O  0.03765195  0.72748982  0.37304804    -0.55930
C700        C  0.43762540  0.62108874  0.37625980     0.77830
O701        O  0.48566853  0.70494082  0.37727890    -0.58300
O702        O  0.99810830  0.65015745  0.29291081    -0.56750
O703        O  0.02380531  0.67178127  0.45588018    -0.56740
O704        O  0.45288132  0.63301572  0.41334073    -0.55910
O705        O  0.39921989  0.86549711  0.33112471    -0.57120
C706        C  0.38350188  0.85611559  0.45554344     0.75510
O707        O  0.32417060  0.76077078  0.36876623    -0.58280
C708        C  0.38588621  0.85663545  0.29199349     0.75480
C709        C  0.40863142  0.79737386  0.37757037     0.77870
Cd710      Cd  0.36178128  0.81656718  0.37446517     1.37460
O711        O  0.37369781  0.86449670  0.42001035    -0.57120
O712        O  0.39762981  0.80065874  0.33941548    -0.55930
C713        C  0.29804221  0.76113917  0.37386271     0.77830
O714        O  0.39467515  0.79842635  0.41419640    -0.58300
O715        O  0.37887069  0.82779833  0.45536759    -0.56750
O716        O  0.35942746  0.83016465  0.29141536    -0.56740
O717        O  0.30025026  0.78844770  0.37921185    -0.55910
O718        O  0.37577698  0.98900873  0.32922689    -0.57120
C719        C  0.38796254  0.50896696  0.45626312     0.75510
O720        O  0.39509772  0.57668693  0.33904686    -0.58280
C721        C  0.38540817  0.50710629  0.29368236     0.75480
C722        C  0.29903265  0.51547026  0.37547938     0.77870
Cd723      Cd  0.36335728  0.52486695  0.37517750     1.37470
O724        O  0.40196543  0.01479737  0.41735514    -0.57120
O725        O  0.30211865  0.99095172  0.36883303    -0.55930
C726        C  0.40792453  0.59071822  0.37657792     0.77830
O727        O  0.32462467  0.54183347  0.38172013    -0.58300
O728        O  0.36073113  0.50780717  0.45711545    -0.56750
O729        O  0.38141621  0.53126649  0.29459404    -0.56740
O730        O  0.39687299  0.57527876  0.41390534    -0.55910
O731        O  0.16370510  0.01115559  0.42043230    -0.57120
C732        C  0.17406159  0.50586905  0.29429339     0.75510
O733        O  0.23264689  0.57670171  0.34226802    -0.58280
C734        C  0.17382544  0.50797978  0.45950434     0.75480
C735        C  0.26822450  0.51536459  0.37587390     0.77870
Cd736      Cd  0.21296876  0.52418878  0.37675039     1.37460
O737        O  0.16470573  0.98851371  0.33059255    -0.57120
O738        O  0.24059032  0.99063126  0.37041147    -0.55930
C739        C  0.23208619  0.58974279  0.37999672     0.77830
O740        O  0.26890752  0.54171930  0.38171786    -0.58300
O741        O  0.20245480  0.52970972  0.29526872    -0.56750
O742        O  0.20094686  0.50890045  0.45955126    -0.56740
O743        O  0.22663900  0.57352450  0.41666698    -0.55910
O744        O  0.16441912  0.63110183  0.42029882    -0.57120
C745        C  0.17336881  0.64289876  0.29451409     0.75510
O746        O  0.26918824  0.70488857  0.37519010    -0.58280
C747        C  0.17401328  0.64442939  0.45935264     0.75480
C748        C  0.23245743  0.61998275  0.38033212     0.77870
Cd749      Cd  0.21304560  0.66634140  0.37645832     1.37470
O750        O  0.16414964  0.65281971  0.32904593    -0.57120
O751        O  0.22693504  0.63066772  0.41720234    -0.55930
C752        C  0.26765145  0.73036519  0.37429109     0.77830
O753        O  0.23370587  0.63409412  0.34282130    -0.58300
O754        O  0.20179827  0.64725338  0.29673149    -0.56750
O755        O  0.20126050  0.67006781  0.45973018    -0.56740
O756        O  0.23953290  0.72725421  0.37381742    -0.55910
C757        C  0.40230608  0.50149868  0.25271392    -0.01790
C758        C  0.15220557  0.49995629  0.25245686    -0.01790
C759        C  0.15196994  0.62559101  0.25272769    -0.01790
C760        C  0.02728956  0.62876695  0.24999835    -0.01790
C761        C  0.02611613  0.87551502  0.25164012    -0.01790
C762        C  0.40231778  0.87633370  0.24836206    -0.01790
O763        O  0.39026573  0.48823104  0.17129204    -0.57120
C764        C  0.38287919  0.99964259  0.04208963     0.75510
O765        O  0.32036837  0.92677464  0.09031035    -0.58280
C766        C  0.38310080  0.99744907  0.20828501     0.75480
C767        C  0.28714187  0.98770410  0.12841321     0.77870
Cd768      Cd  0.34409947  0.98099252  0.12513249     1.37470
O769        O  0.39329916  0.51676829  0.07838997    -0.57120
O770        O  0.31421007  0.51226666  0.11882134    -0.55930
C771        C  0.32685580  0.91567149  0.12587922     0.77830
O772        O  0.28748702  0.96212154  0.13744866    -0.58300
O773        O  0.35365337  0.97760586  0.04366001    -0.56750
O774        O  0.35913794  0.00221940  0.20584466    -0.56740
O775        O  0.33707679  0.93350110  0.16096087    -0.55910
O776        O  0.15049994  0.48264110  0.17309558    -0.57120
C777        C  0.17098097  0.99906885  0.04528930     0.75510
O778        O  0.23038692  0.96112658  0.13662838    -0.58280
C779        C  0.16728546  0.49445427  0.20919082     0.75480
C780        C  0.14578396  0.91282398  0.12594346     0.77870
Cd781      Cd  0.19146171  0.97872341  0.12664242     1.37460
O782        O  0.17728236  0.51492935  0.08267620    -0.57120
O783        O  0.15782546  0.92771298  0.16319193    -0.55930
C784        C  0.25598718  0.98720529  0.12830715     0.77830
O785        O  0.15837122  0.92719301  0.08836766    -0.58300
O786        O  0.17756075  0.97655800  0.04496686    -0.56750
O787        O  0.19661357  0.00103305  0.20659528    -0.56740
O788        O  0.25271958  0.51135973  0.11929778    -0.55910
O789        O  0.15378894  0.63854126  0.17083740    -0.57120
C790        C  0.17125701  0.64996984  0.04489915     0.75510
O791        O  0.16029809  0.70779885  0.09405269    -0.58280
C792        C  0.16807916  0.64591194  0.20949760     0.75480
C793        C  0.25659518  0.74214475  0.12801330     0.77870
Cd794      Cd  0.19237990  0.68733705  0.12876074     1.37470
O795        O  0.18009039  0.64014246  0.07990450    -0.57120
O796        O  0.25362228  0.71471731  0.12052561    -0.55930
C797        C  0.14653838  0.70796155  0.13142016     0.77830
O798        O  0.23100029  0.74289125  0.13672168    -0.58300
O799        O  0.17593108  0.67826284  0.04748361    -0.56750
O800        O  0.19543795  0.67147407  0.21000091    -0.56740
O801        O  0.15706772  0.70270874  0.16866124    -0.55910
O802        O  0.01554865  0.64214755  0.07983926    -0.57120
C803        C  0.03272644  0.64916717  0.20678124     0.75510
O804        O  0.10331138  0.70788845  0.09231008    -0.58280
C805        C  0.03224194  0.65205128  0.04294126     0.75480
C806        C  0.04230751  0.74499866  0.12490632     0.77870
Cd807      Cd  0.05078991  0.69003812  0.12586300     1.37460
O808        O  0.04447131  0.64414311  0.17044303    -0.57120
O809        O  0.01718704  0.71739944  0.12363531    -0.55930
C810        C  0.11664049  0.70879835  0.13050305     0.77830
O811        O  0.06928011  0.74603625  0.12721451    -0.58300
O812        O  0.02706537  0.67239624  0.20491928    -0.56750
O813        O  0.05513766  0.68078319  0.04328076    -0.56740
O814        O  0.10082750  0.70575093  0.16721972    -0.55910
O815        O  0.38833377  0.84564143  0.06722578    -0.57120
C816        C  0.38155615  0.85964355  0.20573188     0.75510
O817        O  0.31925956  0.86758859  0.09042216    -0.58280
C818        C  0.38186543  0.86210929  0.03913130     0.75480
C819        C  0.28728479  0.77261582  0.12612519     0.77870
Cd820      Cd  0.34311704  0.83648913  0.12281396     1.37470
O821        O  0.39257082  0.85297672  0.16973519    -0.57120
O822        O  0.31483079  0.77523134  0.11941181    -0.55930
C823        C  0.32703415  0.88561487  0.12568661     0.77830
O824        O  0.28669154  0.79838291  0.13085566    -0.58300
O825        O  0.35202850  0.85183150  0.20412787    -0.56750
O826        O  0.35649272  0.86296888  0.04868955    -0.56740
O827        O  0.33874857  0.87854453  0.15992387    -0.55910
O828        O  0.01621706  0.85504251  0.17181990    -0.57120
C829        C  0.03364917  0.86391571  0.04563824     0.75510
O830        O  0.10133463  0.86936687  0.08908538    -0.58280
C831        C  0.03148278  0.85927874  0.20951792     0.75480
C832        C  0.04184797  0.77522551  0.12387504     0.77870
Cd833      Cd  0.04902712  0.83818325  0.12649276     1.37460
O834        O  0.01463934  0.83492589  0.05755637    -0.57120
O835        O  0.01654448  0.77747659  0.12864539    -0.55930
C836        C  0.11540811  0.88288849  0.12644121     0.77830
O837        O  0.06823935  0.80105201  0.11888473    -0.58300
O838        O  0.05769092  0.87957537  0.07180665    -0.56750
O839        O  0.05202718  0.84991815  0.20961992    -0.56740
O840        O  0.09990133  0.87226821  0.16399255    -0.55910
C841        C  0.43525410  0.84804216  0.25267463    -0.25620
C842        C  0.43478621  0.87631578  0.24084783    -0.13700
C843        C  0.46152024  0.89840748  0.21284483     0.36930
C844        C  0.49105552  0.89809632  0.21558157    -0.25070
C845        C  0.49352617  0.87482799  0.24256100    -0.14310
C846        C  0.46366497  0.84634476  0.25060235     0.38020
N847        N  0.46189381  0.81555173  0.25291935    -0.88560
H848        H  0.41290170  0.82646345  0.26108694     0.19130
H849        H  0.51202008  0.91614971  0.19693163     0.19120
N850        N  0.45987090  0.92107430  0.18189622    -0.87590
H851        H  0.46874948  0.81105602  0.22060446     0.36500
H852        H  0.43795506  0.79720966  0.25772521     0.41600
H853        H  0.43619193  0.91670073  0.17893666     0.41220
H854        H  0.46597724  0.91696525  0.14875685     0.36110
C855        C  0.11822780  0.65262127  0.26454725    -0.25620
C856        C  0.11826378  0.62371902  0.25616920    -0.13700
C857        C  0.08795301  0.59637459  0.24480697     0.36930
C858        C  0.05928614  0.59829837  0.24646418    -0.25070
C859        C  0.05921839  0.62721903  0.25585497    -0.14310
C860        C  0.09015708  0.65514242  0.26386987     0.38020
N861        N  0.09521724  0.68717721  0.26914495    -0.88560
H862        H  0.14109794  0.67456828  0.26941703     0.19130
H863        H  0.03709685  0.57711198  0.23653531     0.19120
N864        N  0.08609868  0.56734925  0.22777937    -0.87590
H865        H  0.10270566  0.69454080  0.30320545     0.36500
H866        H  0.07487414  0.68929006  0.26310479     0.41600
H867        H  0.09675832  0.57239758  0.19484132     0.41220
H868        H  0.06207546  0.54920874  0.22324611     0.36110
C869        C  0.13791866  0.54085284  0.28668044    -0.25620
C870        C  0.14974773  0.53147847  0.24805819    -0.13700
C871        C  0.16247388  0.55399495  0.21050859     0.36930
C872        C  0.16248761  0.58326302  0.21249484    -0.25070
C873        C  0.15020509  0.59219167  0.25068325    -0.14310
C874        C  0.13771771  0.57016145  0.28818130     0.38020
N875        N  0.12480844  0.57751684  0.32829382    -0.88560
H876        H  0.12892435  0.52517130  0.31667020     0.19130
H877        H  0.17311588  0.59921863  0.18324941     0.19120
N878        N  0.17669836  0.54862102  0.17017441    -0.87590
H879        H  0.10073915  0.55934201  0.33251511     0.36500
H880        H  0.13785651  0.57719378  0.35722573     0.41600
H881        H  0.20079179  0.56708644  0.16766364     0.41220
H882        H  0.16425550  0.54979881  0.14105752     0.36110
C883        C  0.08922196  0.96788292  0.26015659    -0.25620
C884        C  0.11909245  0.96804823  0.25955448    -0.13700
C885        C  0.11715596  0.93733736  0.26443562     0.36930
C886        C  0.08692864  0.90918926  0.26391041    -0.25070
C887        C  0.05736512  0.90898857  0.25913259    -0.14310
C888        C  0.05904614  0.93922272  0.26460707     0.38020
N889        N  0.03119142  0.94122275  0.27905907    -0.88560
H890        H  0.08873111  0.99006298  0.25832750     0.19130
H891        H  0.08682106  0.88668662  0.26738074     0.19120
N892        N  0.14477326  0.93288880  0.27070063    -0.87590
H893        H  0.03687252  0.96512478  0.28303607     0.36500
H894        H  0.02425840  0.93047619  0.31176407     0.41600
H895        H  0.16693708  0.95359842  0.26620675     0.41220
H896        H  0.14392468  0.91678888  0.24566366     0.36110
C897        C  0.44607105  0.55274430  0.20972755    -0.25560
C898        C  0.43672268  0.53261542  0.24930631    -0.13700
C899        C  0.45834292  0.54410043  0.28756781     0.36930
C900        C  0.48727565  0.57404879  0.28543580    -0.25070
C901        C  0.49597508  0.59463960  0.24641361    -0.14310
C902        C  0.47433719  0.58301369  0.20794086     0.38020
N903        N  0.47975108  0.60158761  0.16664248    -0.88560
H904        H  0.43091519  0.54612508  0.17934263     0.19130
H905        H  0.00291555  0.58179943  0.31555425     0.19120
N906        N  0.45070659  0.52576679  0.32955667    -0.87590
H907        H  0.46004529  0.60527028  0.16182019     0.36500
H908        H  0.48076374  0.58835469  0.13850611     0.41600
H909        H  0.45009369  0.54003641  0.35648257     0.41220
H910        H  0.46951926  0.52104557  0.33644834     0.36110
C911        C  0.37496015  0.91008089  0.26014631    -0.25620
C912        C  0.40426752  0.90963132  0.25653895    -0.13700
C913        C  0.43286138  0.93948471  0.26439202     0.36930
C914        C  0.43197587  0.96846671  0.26081877    -0.25070
C915        C  0.40255819  0.96910198  0.25902557    -0.14310
C916        C  0.37334987  0.93848685  0.26189037     0.38020
N917        N  0.34137795  0.93443592  0.26778088    -0.88560
H918        H  0.35232052  0.88765042  0.26206256     0.19130
H919        H  0.45485098  0.99054489  0.26054429     0.19120
N920        N  0.46224030  0.94062539  0.27907418    -0.87590
H921        H  0.32606255  0.91854190  0.24261685     0.36500
H922        H  0.34042981  0.95538175  0.26324669     0.41600
H923        H  0.45765535  0.92899943  0.31117521     0.41220
H924        H  0.48061384  0.96430458  0.28449014     0.36110
C925        C  0.48532976  0.88646086  0.46061766    -0.25620
C926        C  0.49781737  0.88292980  0.00340262    -0.13700
C927        C  0.48127026  0.88444304  0.04404370     0.36930
C928        C  0.45260723  0.88611189  0.04010700    -0.25070
C929        C  0.43692753  0.88305875  0.99727829    -0.14310
C930        C  0.45536344  0.88572043  0.45678608     0.38020
N931        N  0.44387810  0.88774136  0.41149803    -0.88560
H932        H  0.49869872  0.88889104  0.42904168     0.19130
H933        H  0.44222838  0.88918170  0.07175456     0.19120
N934        N  0.49254887  0.88497901  0.09020872    -0.87590
H935        H  0.45949399  0.88826206  0.38549284     0.36500
H936        H  0.44390314  0.90947855  0.40922312     0.41600
H937        H  0.51681878  0.90267230  0.09335157     0.41220
H938        H  0.48923889  0.86240180  0.09844977     0.36110
C939        C  0.06839896  0.61579215  0.03609606    -0.25620
C940        C  0.05987000  0.62901878  0.49832165    -0.13700
C941        C  0.08484307  0.64508633  0.46394134     0.36930
C942        C  0.11358669  0.64387568  0.46581316    -0.25070
C943        C  0.12043870  0.62790637  0.50115956    -0.14310
C944        C  0.09702575  0.61369856  0.03699969     0.38020
N945        N  0.10232467  0.59724803  0.07465607    -0.88560
H946        H  0.05249512  0.60707808  0.06600995     0.19130
H947        H  0.13134936  0.65729811  0.43934666     0.19120
N948        N  0.08448713  0.66589245  0.42866717    -0.87590
H949        H  0.08075313  0.58323600  0.09290864     0.36500
H950        H  0.11789696  0.61470763  0.09792295     0.41600
H951        H  0.08152934  0.68416989  0.44334206     0.41220
H952        H  0.06749828  0.65274787  0.40333956     0.36110
C953        C  0.12708362  0.53825951  0.98670292    -0.25620
C954        C  0.15350045  0.53643412  0.00561261    -0.13700
C955        C  0.18111647  0.56593662  0.51781917     0.36930
C956        C  0.17982188  0.59449351  0.51750211    -0.25070
C957        C  0.15159615  0.59553672  0.00535239    -0.14310
C958        C  0.12548425  0.56685808  0.98678534     0.38020
N959        N  0.09815148  0.56680921  0.96549357    -0.88560
H960        H  0.10766898  0.51735290  0.97018958     0.19130
H961        H  0.20194391  0.61652280  0.52537189     0.19120
N962        N  0.21131169  0.56757797  0.52857479    -0.87590
H963        H  0.08062456  0.54361444  0.95567954     0.36500
H964        H  0.10627407  0.58020519  0.93490134     0.41600
H965        H  0.21819279  0.57723740  0.56184810     0.41220
H966        H  0.22888530  0.58351713  0.50540763     0.36110
C967        C  0.06269986  0.94000745  0.01826135    -0.25620
C968        C  0.06069915  0.91279675  0.99621470    -0.13700
C969        C  0.09066327  0.91568297  0.48098021     0.36930
C970        C  0.11886189  0.94594245  0.47981412    -0.25070
C971        C  0.12064450  0.97331744  0.00086684    -0.14310
C972        C  0.09236749  0.96831444  0.02540033     0.38020
N973        N  0.09290282  0.98935005  0.06132803    -0.88560
H974        H  0.04162252  0.93844408  0.03489589     0.19130
H975        H  0.14065757  0.94733398  0.46584022     0.19120
N976        N  0.09326489  0.88787995  0.46911245    -0.87590
H977        H  0.08087841  0.00125099  0.04959584     0.36500
H978        H  0.11626507  0.50597061  0.07182866     0.41600
H979        H  0.08923593  0.87420421  0.49910642     0.41220
H980        H  0.11661856  0.89433313  0.45777234     0.36110
C981        C  0.49477824  0.56799234  0.01936317    -0.25620
C982        C  0.49538720  0.59726823  0.00980301    -0.13700
C983        C  0.46453767  0.59553488  0.50727419     0.36930
C984        C  0.43629374  0.56555411  0.50279506    -0.25070
C985        C  0.43652556  0.53641456  0.00700166    -0.14310
C986        C  0.46529516  0.53897114  0.02524668     0.38020
N987        N  0.46464146  0.51279312  0.05045674    -0.88560
H988        H  0.01651745  0.56676554  0.02369918     0.19130
H989        H  0.41348129  0.56490676  0.49725100     0.19120
N990        N  0.46184453  0.62414150  0.50716641    -0.87590
H991        H  0.48781927  0.51899387  0.06214519     0.36500
H992        H  0.45032525  0.50878076  0.07998508     0.41600
H993        H  0.46688225  0.63371588  0.54053750     0.41220
H994        H  0.43796068  0.61856254  0.50093550     0.36110
C995        C  0.43229282  0.94103370  0.48242505    -0.25620
C996        C  0.40278295  0.91179753  0.48805339    -0.13700
C997        C  0.37402659  0.91395659  0.98412526     0.36930
C998        C  0.37566041  0.94386115  0.98643277    -0.25070
C999        C  0.40525464  0.97295763  0.48939969    -0.14310
C1000       C  0.43302449  0.97071828  0.47725766     0.38020
N1001       N  0.46074052  0.99734601  0.45609017    -0.88560
H1002       H  0.45494376  0.94109960  0.47933111     0.19130
H1003       H  0.35306966  0.94403675  0.98433648     0.19120
N1004       N  0.34291207  0.88620183  0.97627571    -0.87590
H1005       H  0.47849138  0.99129479  0.44804983     0.36500
H1006       H  0.45319303  0.50225674  0.42465197     0.41600
H1007       H  0.33428677  0.88917545  0.94439330     0.41220
H1008       H  0.32688705  0.88547086  0.00176241     0.36110
C1009       C  0.40398066  0.00450600  0.49910317    -0.01790
C1010       C  0.15449451  0.50446661  0.50351189    -0.01790
C1011       C  0.15388322  0.62904551  0.50284183    -0.01790
C1012       C  0.02731685  0.63025943  0.50182828    -0.01790
C1013       C  0.02914325  0.87945710  0.50211199    -0.01790
C1014       C  0.40180571  0.87886979  0.49520408    -0.01790
O1015       O  0.01485386  0.86467693  0.83399669    -0.57120
C1016       C  0.02453870  0.85694366  0.96144524     0.75510
O1017       O  0.45307060  0.79977241  0.91736233    -0.58280
C1018       C  0.02215182  0.85650323  0.79619059     0.75480
C1019       C  0.01307759  0.76133176  0.87741277     0.77870
Cd1020     Cd  0.00537551  0.81720284  0.87973606     1.37470
O1021       O  0.03964546  0.86674246  0.92323488    -0.57120
O1022       O  0.03844018  0.78865558  0.88126560    -0.55930
C1023       C  0.43907155  0.79766093  0.87937557     0.77830
O1024       O  0.48646354  0.76103368  0.87532040    -0.58300
O1025       O  0.00300124  0.82760964  0.96276034    -0.56750
O1026       O  0.52462652  0.83137378  0.79773582    -0.56740
O1027       O  0.45462645  0.80039253  0.84276036    -0.55910
O1028       O  0.01133646  0.62757518  0.92119663    -0.57120
C1029       C  0.02161341  0.64488855  0.79194484     0.75510
O1030       O  0.45154485  0.63383451  0.83852395    -0.58280
C1031       C  0.02103032  0.64409075  0.95788812     0.75480
C1032       C  0.01264904  0.73051656  0.87589687     0.77870
Cd1033     Cd  0.00359362  0.66644761  0.87470935     1.37460
O1034       O  0.03905146  0.65281241  0.82811692    -0.57120
O1035       O  0.03765125  0.72748960  0.87304809    -0.55930
C1036       C  0.43762470  0.62108857  0.87625957     0.77830
O1037       O  0.48566783  0.70494064  0.87727876    -0.58300
O1038       O  0.99810781  0.65015747  0.79291070    -0.56750
O1039       O  0.02380502  0.67178112  0.95587999    -0.56740
O1040       O  0.45288049  0.63301565  0.91334056    -0.55910
O1041       O  0.39921967  0.86549694  0.83112429    -0.57120
C1042       C  0.38350148  0.85611534  0.95554280     0.75510
O1043       O  0.32417004  0.76077059  0.86876535    -0.58280
C1044       C  0.38588608  0.85663548  0.79199298     0.75480
C1045       C  0.40863087  0.79737363  0.87756972     0.77870
Cd1046     Cd  0.36178080  0.81656699  0.87446447     1.37460
O1047       O  0.37369720  0.86449639  0.92000988    -0.57120
O1048       O  0.39762943  0.80065875  0.83941482    -0.55930
C1049       C  0.29804167  0.76113900  0.87386209     0.77830
O1050       O  0.39467438  0.79842580  0.91419571    -0.58300
O1051       O  0.37887049  0.82779815  0.95536678    -0.56750
O1052       O  0.35942726  0.83016474  0.79141462    -0.56740
O1053       O  0.30024976  0.78844754  0.87921129    -0.55910
O1054       O  0.37577672  0.98900873  0.82922678    -0.57120
C1055       C  0.38796186  0.50896661  0.95626258     0.75510
O1056       O  0.39509711  0.57668675  0.83904654    -0.58280
C1057       C  0.38540783  0.50710620  0.79368216     0.75480
C1058       C  0.29903202  0.51547002  0.87547905     0.77870
Cd1059     Cd  0.36335666  0.52486675  0.87517710     1.37470
O1060       O  0.40196474  0.01479709  0.91735460    -0.57120
O1061       O  0.30211802  0.99095150  0.86883248    -0.55930
C1062       C  0.40792384  0.59071804  0.87657763     0.77830
O1063       O  0.32462404  0.54183321  0.88171988    -0.58300
O1064       O  0.36073044  0.50780680  0.95711501    -0.56750
O1065       O  0.38141563  0.53126626  0.79459361    -0.56740
O1066       O  0.39687224  0.57527857  0.91390503    -0.55910
O1067       O  0.16370458  0.01115540  0.92043258    -0.57120
C1068       C  0.17406119  0.50586901  0.79429341     0.75510
O1069       O  0.23264634  0.57670154  0.84226817    -0.58280
C1070       C  0.17382500  0.50797961  0.95950457     0.75480
C1071       C  0.26822388  0.51536436  0.87587374     0.77870
Cd1072     Cd  0.21296821  0.52418862  0.87675051     1.37460
O1073       O  0.16470522  0.98851364  0.83059255    -0.57120
O1074       O  0.24058969  0.99063106  0.87041127    -0.55930
C1075       C  0.23208568  0.58974264  0.87999686     0.77830
O1076       O  0.26890693  0.54171907  0.88171793    -0.58300
O1077       O  0.20245440  0.52970968  0.79526887    -0.56750
O1078       O  0.20094643  0.50890029  0.95955136    -0.56740
O1079       O  0.22663849  0.57352436  0.91666713    -0.55910
O1080       O  0.16441872  0.63110141  0.92029903    -0.57120
C1081       C  0.17336823  0.64289853  0.79451419     0.75510
O1082       O  0.26918769  0.70488839  0.87518990    -0.58280
C1083       C  0.17401279  0.64442912  0.95935278     0.75480
C1084       C  0.23245694  0.61998261  0.88033225     0.77870
Cd1085     Cd  0.21304505  0.66634119  0.87645839     1.37470
O1086       O  0.16414904  0.65281947  0.82904604    -0.57120
O1087       O  0.22693464  0.63066764  0.91720247    -0.55930
C1088       C  0.26765090  0.73036501  0.87429076     0.77830
O1089       O  0.23370531  0.63409393  0.84282139    -0.58300
O1090       O  0.20179767  0.64725310  0.79673165    -0.56750
O1091       O  0.20125989  0.67006769  0.95973020    -0.56740
O1092       O  0.23953235  0.72725402  0.87381725    -0.55910
C1093       C  0.40230586  0.50149860  0.75271386    -0.01790
C1094       C  0.15220530  0.49995628  0.75245676    -0.01790
C1095       C  0.15196943  0.62559089  0.75272769    -0.01790
C1096       C  0.02728911  0.62876697  0.74999836    -0.01790
C1097       C  0.02611592  0.87551492  0.75163993    -0.01790
C1098       C  0.40231779  0.87633394  0.74836175    -0.01790
O1099       O  0.39026531  0.48823026  0.67129214    -0.57120
C1100       C  0.38287966  0.99964282  0.54209017     0.75510
O1101       O  0.32037189  0.92677607  0.59030739    -0.58280
C1102       C  0.38310059  0.99744874  0.70828488     0.75480
C1103       C  0.28714178  0.98770420  0.62841221     0.77870
Cd1104     Cd  0.34409923  0.98099230  0.62513248     1.37470
O1105       O  0.39329971  0.51676796  0.57839101    -0.57120
O1106       O  0.31421013  0.51226683  0.61882121    -0.55930
C1107       C  0.32685446  0.91567092  0.62587849     0.77830
O1108       O  0.28748670  0.96212143  0.63744675    -0.58300
O1109       O  0.35365363  0.97760651  0.54365994    -0.56750
O1110       O  0.35913798  0.00221943  0.70584427    -0.56740
O1111       O  0.33707103  0.93349871  0.66096250    -0.55910
O1112       O  0.15050001  0.48264174  0.67309518    -0.57120
C1113       C  0.17098121  0.99906907  0.54528909     0.75510
O1114       O  0.23038688  0.96112677  0.63662724    -0.58280
C1115       C  0.16728530  0.49445434  0.70919077     0.75480
C1116       C  0.14578404  0.91282425  0.62594353     0.77870
Cd1117     Cd  0.19146174  0.97872368  0.62664234     1.37460
O1118       O  0.17728256  0.51492962  0.58267595    -0.57120
O1119       O  0.15782562  0.92771326  0.66319197    -0.55930
C1120       C  0.25598717  0.98720553  0.62830643     0.77830
O1121       O  0.15837118  0.92719329  0.58836770    -0.58300
O1122       O  0.17756089  0.97655816  0.54496682    -0.56750
O1123       O  0.19661329  0.00103267  0.70659558    -0.56740
O1124       O  0.25271966  0.51136013  0.61929789    -0.55910
O1125       O  0.15378870  0.63854118  0.67083737    -0.57120
C1126       C  0.17125741  0.64996994  0.54489906     0.75510
O1127       O  0.16029798  0.70779849  0.59405281    -0.58280
C1128       C  0.16807878  0.64591186  0.70949768     0.75480
C1129       C  0.25659509  0.74214456  0.62801304     0.77870
Cd1130     Cd  0.19237992  0.68733688  0.62876082     1.37470
O1131       O  0.18009072  0.64014247  0.57990441    -0.57120
O1132       O  0.25362235  0.71471706  0.62052655    -0.55930
C1133       C  0.14653846  0.70796142  0.63142035     0.77830
O1134       O  0.23100012  0.74289109  0.63672053    -0.58300
O1135       O  0.17593141  0.67826290  0.54748367    -0.56750
O1136       O  0.19543761  0.67147395  0.71000113    -0.56740
O1137       O  0.15706794  0.70270879  0.66866142    -0.55910
O1138       O  0.01554914  0.64214779  0.57983944    -0.57120
C1139       C  0.03272611  0.64916722  0.70678128     0.75510
O1140       O  0.10331159  0.70788868  0.59231042    -0.58280
C1141       C  0.03224245  0.65205161  0.54294146     0.75480
C1142       C  0.04230776  0.74499881  0.62490657     0.77870
Cd1143     Cd  0.05079011  0.69003830  0.62586324     1.37460
O1144       O  0.04447065  0.64414287  0.67044295    -0.57120
O1145       O  0.01718730  0.71739961  0.62363457    -0.55930
C1146       C  0.11664062  0.70879830  0.63050337     0.77830
O1147       O  0.06928031  0.74603638  0.62721576    -0.58300
O1148       O  0.02706554  0.67239661  0.70491948    -0.56750
O1149       O  0.05513806  0.68078357  0.54328099    -0.56740
O1150       O  0.10082758  0.70575071  0.66722005    -0.55910
O1151       O  0.38833465  0.84564284  0.56722763    -0.57120
C1152       C  0.38155613  0.85964419  0.70573146     0.75510
O1153       O  0.31926285  0.86759061  0.59041915    -0.58280
C1154       C  0.38186569  0.86210958  0.53913189     0.75480
C1155       C  0.28728461  0.77261566  0.62612464     0.77870
Cd1156     Cd  0.34311659  0.83648914  0.62281405     1.37470
O1157       O  0.39257059  0.85297707  0.66973484    -0.57120
O1158       O  0.31483081  0.77523128  0.61941296    -0.55930
C1159       C  0.32703266  0.88561419  0.62568610     0.77830
O1160       O  0.28669109  0.79838272  0.63085333    -0.58300
O1161       O  0.35202862  0.85183262  0.70412741    -0.56750
O1162       O  0.35649216  0.86296799  0.54868876    -0.56740
O1163       O  0.33874253  0.87854128  0.65992629    -0.55910
O1164       O  0.01621706  0.85504242  0.67181973    -0.57120
C1165       C  0.03364960  0.86391587  0.54563822     0.75510
O1166       O  0.10133487  0.86936692  0.58908557    -0.58280
C1167       C  0.03148268  0.85927863  0.70951784     0.75480
C1168       C  0.04184825  0.77522567  0.62387526     0.77870
Cd1169     Cd  0.04902734  0.83818335  0.62649285     1.37460
O1170       O  0.01463972  0.83492607  0.55755637    -0.57120
O1171       O  0.01654467  0.77747671  0.62864456    -0.55930
C1172       C  0.11540826  0.88288871  0.62644138     0.77830
O1173       O  0.06823973  0.80105220  0.61888592    -0.58300
O1174       O  0.05769137  0.87957550  0.57180661    -0.56750
O1175       O  0.05202708  0.84991806  0.70962000    -0.56740
O1176       O  0.09990143  0.87226854  0.66399270    -0.55910
C1177       C  0.43525393  0.84804217  0.75267408    -0.25620
C1178       C  0.43478613  0.87631587  0.74084738    -0.13700
C1179       C  0.46152019  0.89840752  0.71284437     0.36930
C1180       C  0.49105542  0.89809626  0.71558110    -0.25070
C1181       C  0.49352599  0.87482791  0.74256058    -0.14310
C1182       C  0.46366477  0.84634470  0.75060184     0.38020
N1183       N  0.46189355  0.81555165  0.75291878    -0.88560
H1184       H  0.41290149  0.82646348  0.76108631     0.19130
H1185       H  0.51202001  0.91614962  0.69693118     0.19120
N1186       N  0.45987094  0.92107443  0.68189584    -0.87590
H1187       H  0.46874923  0.81105596  0.72060389     0.36500
H1188       H  0.43795479  0.79720961  0.75772461     0.41600
H1189       H  0.43619202  0.91670099  0.67893639     0.41220
H1190       H  0.46597722  0.91696537  0.64875645     0.36110
C1191       C  0.11822732  0.65262118  0.76454740    -0.25620
C1192       C  0.11826329  0.62371895  0.75616908    -0.13700
C1193       C  0.08795255  0.59637462  0.74480649     0.36930
C1194       C  0.05928568  0.59829840  0.74646378    -0.25070
C1195       C  0.05921792  0.62721900  0.75585499    -0.14310
C1196       C  0.09015661  0.65514234  0.76387010     0.38020
N1197       N  0.09521679  0.68717712  0.76914548    -0.88560
H1198       H  0.14109745  0.67456815  0.76941735     0.19130
H1199       H  0.03709641  0.57711208  0.73653464     0.19120
N1200       N  0.08609828  0.56734939  0.72777845    -0.87590
H1201       H  0.10270507  0.69454054  0.80320606     0.36500
H1202       H  0.07487373  0.68929004  0.76310520     0.41600
H1203       H  0.09675814  0.57239798  0.69484055     0.41220
H1204       H  0.06207508  0.54920896  0.72324478     0.36110
C1205       C  0.13791797  0.54085260  0.78668013    -0.25620
C1206       C  0.14974747  0.53147847  0.74805812    -0.13700
C1207       C  0.16247415  0.55399524  0.71050892     0.36930
C1208       C  0.16248762  0.58326318  0.71249508    -0.25070
C1209       C  0.15020458  0.59219155  0.75068317    -0.14310
C1210       C  0.13771689  0.57016116  0.78818098     0.38020
N1211       N  0.12480723  0.57751633  0.82829327    -0.88560
H1212       H  0.12892340  0.52517092  0.81666971     0.19130
H1213       H  0.17311628  0.59921900  0.68324996     0.19120
N1214       N  0.17669964  0.54862186  0.67017542    -0.87590
H1215       H  0.10073792  0.55934144  0.83251412     0.36500
H1216       H  0.13785507  0.57719320  0.85722542     0.41600
H1217       H  0.20079307  0.56708743  0.66766573     0.41220
H1218       H  0.16425737  0.54979983  0.64105793     0.36110
C1219       C  0.08922167  0.96788282  0.76015608    -0.25620
C1220       C  0.11909218  0.96804818  0.75955418    -0.13700
C1221       C  0.11715573  0.93733734  0.76443546     0.36930
C1222       C  0.08692843  0.90918920  0.76391033    -0.25070
C1223       C  0.05736489  0.90898847  0.75913241    -0.14310
C1224       C  0.05904588  0.93922262  0.76460670     0.38020
N1225       N  0.03119115  0.94122264  0.77905871    -0.88560
H1226       H  0.08873077  0.99006284  0.75832672     0.19130
H1227       H  0.08682088  0.88668659  0.76738080     0.19120
N1228       N  0.14477304  0.93288881  0.77070059    -0.87590
H1229       H  0.03687224  0.96512468  0.78303561     0.36500
H1230       H  0.02425819  0.93047615  0.81176376     0.41600
H1231       H  0.16693686  0.95359845  0.76620677     0.41220
H1232       H  0.14392452  0.91678891  0.74566363     0.36110
C1233       C  0.44607053  0.55274440  0.70972759    -0.25560
C1234       C  0.43672235  0.53261542  0.74930622    -0.13700
C1235       C  0.45834263  0.54410039  0.78756765     0.36930
C1236       C  0.48727532  0.57404876  0.78543565    -0.25070
C1237       C  0.49597462  0.59463965  0.74641359    -0.14310
C1238       C  0.47433657  0.58301388  0.70794100     0.38020
N1239       N  0.47975012  0.60158809  0.66664301    -0.88560
H1240       H  0.43091454  0.54612520  0.67934279     0.19130
H1241       H  0.00291530  0.58179935  0.81555402     0.19120
N1242       N  0.45070639  0.52576666  0.82955643    -0.87590
H1243       H  0.46004420  0.60527065  0.66182133     0.36500
H1244       H  0.48076270  0.58835542  0.63850624     0.41600
H1245       H  0.45009349  0.54003622  0.85648244     0.41220
H1246       H  0.46951910  0.52104548  0.83644795     0.36110
C1247       C  0.37496025  0.91008102  0.76014716    -0.25620
C1248       C  0.40426763  0.90963154  0.75653909    -0.13700
C1249       C  0.43286153  0.93948496  0.76439166     0.36930
C1250       C  0.43197589  0.96846689  0.76081845    -0.25070
C1251       C  0.40255814  0.96910204  0.75902574    -0.14310
C1252       C  0.37334989  0.93848691  0.76189111     0.38020
N1253       N  0.34137800  0.93443596  0.76778230    -0.88560
H1254       H  0.35232068  0.88765051  0.76206391     0.19130
H1255       H  0.45485097  0.99054510  0.76054351     0.19120
N1256       N  0.46224059  0.94062576  0.77907331    -0.87590
H1257       H  0.32606212  0.91854099  0.74261952     0.36500
H1258       H  0.34042964  0.95538154  0.76324636     0.41600
H1259       H  0.45765593  0.92899990  0.81117439     0.41220
H1260       H  0.48061413  0.96430498  0.78448899     0.36110
C1261       C  0.48532949  0.88646086  0.96061745    -0.25620
C1262       C  0.49781777  0.88292991  0.50340276    -0.13700
C1263       C  0.48127082  0.88444332  0.54404392     0.36930
C1264       C  0.45260780  0.88611222  0.54010737    -0.25070
C1265       C  0.43692793  0.88305892  0.49727878    -0.14310
C1266       C  0.45536314  0.88572034  0.95678570     0.38020
N1267       N  0.44387784  0.88774120  0.91149758    -0.88560
H1268       H  0.49869856  0.88889113  0.92904155     0.19130
H1269       H  0.44222918  0.88918231  0.57175495     0.19120
N1270       N  0.49254958  0.88497942  0.59020887    -0.87590
H1271       H  0.45949382  0.88826196  0.88549247     0.36500
H1272       H  0.44390278  0.90947834  0.90922259     0.41600
H1273       H  0.51681952  0.90267267  0.59335153     0.41220
H1274       H  0.48923956  0.86240221  0.59845000     0.36110
C1275       C  0.06839948  0.61579233  0.53609605    -0.25620
C1276       C  0.05986936  0.62901831  0.99832140    -0.13700
C1277       C  0.08484225  0.64508541  0.96394071     0.36930
C1278       C  0.11358597  0.64387496  0.96581280    -0.25070
C1279       C  0.12043820  0.62790611  0.00115965    -0.14310
C1280       C  0.09702618  0.61369861  0.53699949     0.38020
N1281       N  0.10232489  0.59724763  0.57465546    -0.88560
H1282       H  0.05249557  0.60707810  0.56600986     0.19130
H1283       H  0.13134849  0.65729710  0.93934599     0.19120
N1284       N  0.08448591  0.66589066  0.92866546    -0.87590
H1285       H  0.08075342  0.58323592  0.59290835     0.36500
H1286       H  0.11789764  0.61470697  0.59792228     0.41600
H1287       H  0.08152833  0.68416849  0.94333936     0.41220
H1288       H  0.06749677  0.65274540  0.90333854     0.36110
C1289       C  0.12708407  0.53825976  0.48670241    -0.25620
C1290       C  0.15350087  0.53643435  0.50561216    -0.13700
C1291       C  0.18111604  0.56593642  0.01781957     0.36930
C1292       C  0.17982143  0.59449331  0.01750246    -0.25070
C1293       C  0.15159661  0.59553694  0.50535204    -0.14310
C1294       C  0.12548473  0.56685835  0.48678487     0.38020
N1295       N  0.09815199  0.56680953  0.46549308    -0.88560
H1296       H  0.10766943  0.51735317  0.47018904     0.19130
H1297       H  0.20194346  0.61652261  0.02537216     0.19120
N1298       N  0.21131128  0.56757781  0.02857515    -0.87590
H1299       H  0.08062510  0.54361479  0.45567890     0.36500
H1300       H  0.10627463  0.58020562  0.43490093     0.41600
H1301       H  0.21819240  0.57723727  0.06184844     0.41220
H1302       H  0.22888486  0.58351694  0.00540794     0.36110
C1303       C  0.06270023  0.94000766  0.51826110    -0.25620
C1304       C  0.06069956  0.91279692  0.49621466    -0.13700
C1305       C  0.09066286  0.91568278  0.98098028     0.36930
C1306       C  0.11886151  0.94594225  0.97981435    -0.25070
C1307       C  0.12064485  0.97331767  0.50086648    -0.14310
C1308       C  0.09236784  0.96831469  0.52539995     0.38020
N1309       N  0.09290315  0.98935038  0.56132752    -0.88560
H1310       H  0.04162289  0.93844432  0.53489560     0.19130
H1311       H  0.14065720  0.94733378  0.96584045     0.19120
N1312       N  0.09326445  0.88787976  0.96911242    -0.87590
H1313       H  0.08087874  0.00125130  0.54959521     0.36500
H1314       H  0.11626540  0.50597095  0.57182816     0.41600
H1315       H  0.08923541  0.87420395  0.99910632     0.41220
H1316       H  0.11661813  0.89433293  0.95777237     0.36110
C1317       C  0.49477888  0.56799267  0.51936321    -0.25620
C1318       C  0.49538781  0.59726857  0.50980318    -0.13700
C1319       C  0.46453707  0.59553455  0.00727379     0.36930
C1320       C  0.43629318  0.56555379  0.00279432    -0.25070
C1321       C  0.43652613  0.53641489  0.50700239    -0.14310
C1322       C  0.46529582  0.53897150  0.52524705     0.38020
N1323       N  0.46464226  0.51279353  0.55045711    -0.88560
H1324       H  0.01651809  0.56676581  0.52369882     0.19130
H1325       H  0.41348075  0.56490646  0.99725012     0.19120
N1326       N  0.46184393  0.62414116  0.00716615    -0.87590
H1327       H  0.48782013  0.51899431  0.56214529     0.36500
H1328       H  0.45032621  0.50878125  0.57998561     0.41600
H1329       H  0.46688165  0.63371549  0.04053727     0.41220
H1330       H  0.43796007  0.61856221  0.00093527     0.36110
C1331       C  0.43229227  0.94103342  0.98242435    -0.25620
C1332       C  0.40278244  0.91179723  0.98805280    -0.13700
C1333       C  0.37402715  0.91395696  0.48412563     0.36930
C1334       C  0.37566101  0.94386152  0.48643329    -0.25070
C1335       C  0.40525403  0.97295730  0.98939906    -0.14310
C1336       C  0.43302389  0.97071798  0.97725702     0.38020
N1337       N  0.46073993  0.99734576  0.95608962    -0.88560
H1338       H  0.45494322  0.94109936  0.97933035     0.19130
H1339       H  0.35307029  0.94403717  0.48433693     0.19120
N1340       N  0.34291267  0.88620230  0.47627540    -0.87590
H1341       H  0.47849081  0.99129458  0.94804926     0.36500
H1342       H  0.45319246  0.50225653  0.92465143     0.41600
H1343       H  0.33428775  0.88917614  0.44439279     0.41220
H1344       H  0.32688738  0.88547128  0.50176168     0.36110
C1345       C  0.90398005  0.50450568  0.99910254    -0.01790
C1346       C  0.65449415  0.00446639  0.00351222    -0.01790
C1347       C  0.65388275  0.12904530  0.00284201    -0.01790
C1348       C  0.52731625  0.13025906  0.00182807    -0.01790
C1349       C  0.52914282  0.37945694  0.00211197    -0.01790
C1350       C  0.90180529  0.37886953  0.99520345    -0.01790
O1351       O  0.51485421  0.36467700  0.33399688    -0.57120
C1352       C  0.52453915  0.35694382  0.46144525     0.75510
O1353       O  0.95307139  0.29977309  0.41736279    -0.58280
C1354       C  0.52215211  0.35650332  0.29619073     0.75480
C1355       C  0.51307823  0.26133194  0.37741297     0.77870
Cd1356     Cd  0.50537600  0.31720294  0.37973619     1.37470
O1357       O  0.53964588  0.36674264  0.42323486    -0.57120
O1358       O  0.53844080  0.28865579  0.38126558    -0.55930
C1359       C  0.93907205  0.29766103  0.37937611     0.77830
O1360       O  0.98646414  0.26103380  0.37532088    -0.58300
O1361       O  0.50300180  0.32760977  0.46276043    -0.56750
O1362       O  0.02462683  0.33137388  0.29773587    -0.56740
O1363       O  0.95462662  0.30039196  0.34276079    -0.55910
O1364       O  0.51133754  0.12757558  0.42119663    -0.57120
C1365       C  0.52161392  0.14488856  0.29194486     0.75510
O1366       O  0.95154543  0.13383477  0.33852416    -0.58280
C1367       C  0.52103095  0.14409105  0.45788827     0.75480
C1368       C  0.51264973  0.23051675  0.37589697     0.77870
Cd1369     Cd  0.50359431  0.16644780  0.37470938     1.37460
O1370       O  0.53905207  0.15281252  0.32811685    -0.57120
O1371       O  0.53765195  0.22748981  0.37304805    -0.55930
C1372       C  0.93762540  0.12108874  0.37625981     0.77830
O1373       O  0.98566853  0.20494082  0.37727890    -0.58300
O1374       O  0.49810830  0.15015745  0.29291081    -0.56750
O1375       O  0.52380531  0.17178127  0.45588018    -0.56740
O1376       O  0.95288132  0.13301572  0.41334073    -0.55910
O1377       O  0.89921990  0.36549711  0.33112471    -0.57120
C1378       C  0.88350188  0.35611559  0.45554344     0.75510
O1379       O  0.82417060  0.26077078  0.36876623    -0.58280
C1380       C  0.88588621  0.35663545  0.29199348     0.75480
C1381       C  0.90863143  0.29737386  0.37757036     0.77870
Cd1382     Cd  0.86178128  0.31656718  0.37446517     1.37460
O1383       O  0.87369781  0.36449670  0.42001035    -0.57120
O1384       O  0.89762981  0.30065874  0.33941548    -0.55930
C1385       C  0.79804221  0.26113917  0.37386271     0.77830
O1386       O  0.89467515  0.29842635  0.41419639    -0.58300
O1387       O  0.87887069  0.32779833  0.45536759    -0.56750
O1388       O  0.85942746  0.33016465  0.29141536    -0.56740
O1389       O  0.80025026  0.28844770  0.37921185    -0.55910
O1390       O  0.87577698  0.48900873  0.32922688    -0.57120
C1391       C  0.88796254  0.00896696  0.45626312     0.75510
O1392       O  0.89509772  0.07668693  0.33904687    -0.58280
C1393       C  0.88540817  0.00710629  0.29368236     0.75480
C1394       C  0.79903265  0.01547026  0.37547939     0.77870
Cd1395     Cd  0.86335728  0.02486695  0.37517750     1.37470
O1396       O  0.90196543  0.51479737  0.41735514    -0.57120
O1397       O  0.80211865  0.49095172  0.36883302    -0.55930
C1398       C  0.90792453  0.09071822  0.37657793     0.77830
O1399       O  0.82462467  0.04183347  0.38172013    -0.58300
O1400       O  0.86073113  0.00780717  0.45711545    -0.56750
O1401       O  0.88141621  0.03126649  0.29459405    -0.56740
O1402       O  0.89687299  0.07527876  0.41390535    -0.55910
O1403       O  0.66370510  0.51115559  0.42043230    -0.57120
C1404       C  0.67406159  0.00586905  0.29429339     0.75510
O1405       O  0.73264689  0.07670171  0.34226802    -0.58280
C1406       C  0.67382544  0.00797978  0.45950434     0.75480
C1407       C  0.76822450  0.01536459  0.37587390     0.77870
Cd1408     Cd  0.71296875  0.02418878  0.37675039     1.37460
O1409       O  0.66470573  0.48851371  0.33059255    -0.57120
O1410       O  0.74059032  0.49063126  0.37041147    -0.55930
C1411       C  0.73208619  0.08974279  0.37999672     0.77830
O1412       O  0.76890752  0.04171930  0.38171787    -0.58300
O1413       O  0.70245480  0.02970972  0.29526872    -0.56750
O1414       O  0.70094686  0.00890045  0.45955126    -0.56740
O1415       O  0.72663900  0.07352450  0.41666698    -0.55910
O1416       O  0.66441912  0.13110183  0.42029881    -0.57120
C1417       C  0.67336881  0.14289876  0.29451409     0.75510
O1418       O  0.76918824  0.20488857  0.37519010    -0.58280
C1419       C  0.67401328  0.14442939  0.45935264     0.75480
C1420       C  0.73245743  0.11998275  0.38033213     0.77870
Cd1421     Cd  0.71304560  0.16634140  0.37645832     1.37470
O1422       O  0.66414964  0.15281971  0.32904593    -0.57120
O1423       O  0.72693504  0.13066772  0.41720234    -0.55930
C1424       C  0.76765145  0.23036519  0.37429109     0.77830
O1425       O  0.73370587  0.13409412  0.34282130    -0.58300
O1426       O  0.70179827  0.14725338  0.29673149    -0.56750
O1427       O  0.70126050  0.17006781  0.45973018    -0.56740
O1428       O  0.73953290  0.22725421  0.37381742    -0.55910
C1429       C  0.90230608  0.00149868  0.25271393    -0.01790
C1430       C  0.65220557  0.99995629  0.25245686    -0.01790
C1431       C  0.65196994  0.12559101  0.25272769    -0.01790
C1432       C  0.52728956  0.12876695  0.24999835    -0.01790
C1433       C  0.52611613  0.37551502  0.25164012    -0.01790
C1434       C  0.90231779  0.37633370  0.24836206    -0.01790
O1435       O  0.89026573  0.98823105  0.17129204    -0.57120
C1436       C  0.88287919  0.49964259  0.04208963     0.75510
O1437       O  0.82036839  0.42677465  0.09031033    -0.58280
C1438       C  0.88310080  0.49744907  0.20828501     0.75480
C1439       C  0.78714187  0.48770409  0.12841320     0.77870
Cd1440     Cd  0.84409946  0.48099252  0.12513249     1.37470
O1441       O  0.89329916  0.01676829  0.07838997    -0.57120
O1442       O  0.81421007  0.01226666  0.11882134    -0.55930
C1443       C  0.82685580  0.41567149  0.12587922     0.77830
O1444       O  0.78748701  0.46212154  0.13744865    -0.58300
O1445       O  0.85365337  0.47760586  0.04366001    -0.56750
O1446       O  0.85913795  0.50221940  0.20584466    -0.56740
O1447       O  0.83707676  0.43350108  0.16096088    -0.55910
O1448       O  0.65049994  0.98264110  0.17309559    -0.57120
C1449       C  0.67098097  0.49906885  0.04528930     0.75510
O1450       O  0.73038692  0.46112658  0.13662837    -0.58280
C1451       C  0.66728546  0.99445427  0.20919083     0.75480
C1452       C  0.64578396  0.41282398  0.12594345     0.77870
Cd1453     Cd  0.69146171  0.47872341  0.12664241     1.37460
O1454       O  0.67728236  0.01492934  0.08267620    -0.57120
O1455       O  0.65782547  0.42771298  0.16319193    -0.55930
C1456       C  0.75598718  0.48720529  0.12830714     0.77830
O1457       O  0.65837123  0.42719301  0.08836766    -0.58300
O1458       O  0.67756075  0.47655800  0.04496686    -0.56750
O1459       O  0.69661357  0.50103305  0.20659527    -0.56740
O1460       O  0.75271958  0.01135973  0.11929779    -0.55910
O1461       O  0.65378894  0.13854126  0.17083740    -0.57120
C1462       C  0.67125701  0.14996984  0.04489915     0.75510
O1463       O  0.66029809  0.20779885  0.09405269    -0.58280
C1464       C  0.66807916  0.14591194  0.20949760     0.75480
C1465       C  0.75659517  0.24214475  0.12801330     0.77870
Cd1466     Cd  0.69237990  0.18733705  0.12876073     1.37470
O1467       O  0.68009039  0.14014246  0.07990450    -0.57120
O1468       O  0.75362228  0.21471731  0.12052561    -0.55930
C1469       C  0.64653838  0.20796155  0.13142016     0.77830
O1470       O  0.73100029  0.24289125  0.13672167    -0.58300
O1471       O  0.67593108  0.17826284  0.04748361    -0.56750
O1472       O  0.69543795  0.17147407  0.21000091    -0.56740
O1473       O  0.65706772  0.20270874  0.16866124    -0.55910
O1474       O  0.51554865  0.14214755  0.07983926    -0.57120
C1475       C  0.53272644  0.14916717  0.20678125     0.75510
O1476       O  0.60331138  0.20788845  0.09231008    -0.58280
C1477       C  0.53224194  0.15205128  0.04294126     0.75480
C1478       C  0.54230751  0.24499866  0.12490632     0.77870
Cd1479     Cd  0.55078991  0.19003812  0.12586300     1.37460
O1480       O  0.54447131  0.14414311  0.17044303    -0.57120
O1481       O  0.51718704  0.21739944  0.12363531    -0.55930
C1482       C  0.61664049  0.20879835  0.13050306     0.77830
O1483       O  0.56928011  0.24603625  0.12721451    -0.58300
O1484       O  0.52706537  0.17239624  0.20491928    -0.56750
O1485       O  0.55513766  0.18078319  0.04328077    -0.56740
O1486       O  0.60082750  0.20575093  0.16721972    -0.55910
O1487       O  0.88833376  0.34564141  0.06722576    -0.57120
C1488       C  0.88155615  0.35964355  0.20573187     0.75510
O1489       O  0.81925958  0.36758860  0.09042214    -0.58280
C1490       C  0.88186543  0.36210929  0.03913130     0.75480
C1491       C  0.78728479  0.27261582  0.12612518     0.77870
Cd1492     Cd  0.84311704  0.33648913  0.12281396     1.37470
O1493       O  0.89257082  0.35297673  0.16973518    -0.57120
O1494       O  0.81483079  0.27523134  0.11941181    -0.55930
C1495       C  0.82703414  0.38561486  0.12568661     0.77830
O1496       O  0.78669154  0.29838291  0.13085564    -0.58300
O1497       O  0.85202850  0.35183150  0.20412786    -0.56750
O1498       O  0.85649274  0.36296890  0.04868957    -0.56740
O1499       O  0.83874854  0.37854451  0.15992388    -0.55910
O1500       O  0.51621706  0.35504251  0.17181989    -0.57120
C1501       C  0.53364917  0.36391571  0.04563824     0.75510
O1502       O  0.60133463  0.36936687  0.08908538    -0.58280
C1503       C  0.53148279  0.35927873  0.20951792     0.75480
C1504       C  0.54184797  0.27522551  0.12387504     0.77870
Cd1505     Cd  0.54902712  0.33818325  0.12649276     1.37460
O1506       O  0.51463934  0.33492589  0.05755636    -0.57120
O1507       O  0.51654448  0.27747659  0.12864539    -0.55930
C1508       C  0.61540812  0.38288849  0.12644121     0.77830
O1509       O  0.56823936  0.30105201  0.11888472    -0.58300
O1510       O  0.55769092  0.37957537  0.07180665    -0.56750
O1511       O  0.55202718  0.34991815  0.20961992    -0.56740
O1512       O  0.59990133  0.37226821  0.16399254    -0.55910
C1513       C  0.93525410  0.34804216  0.25267463    -0.25620
C1514       C  0.93478621  0.37631578  0.24084783    -0.13700
C1515       C  0.96152024  0.39840748  0.21284482     0.36930
C1516       C  0.99105552  0.39809632  0.21558157    -0.25070
C1517       C  0.99352617  0.37482799  0.24256100    -0.14310
C1518       C  0.96366498  0.34634476  0.25060234     0.38020
N1519       N  0.96189381  0.31555173  0.25291934    -0.88560
H1520       H  0.91290170  0.32646345  0.26108693     0.19130
H1521       H  0.01202008  0.41614971  0.19693162     0.19120
N1522       N  0.95987090  0.42107430  0.18189621    -0.87590
H1523       H  0.96874949  0.31105602  0.22060446     0.36500
H1524       H  0.93795507  0.29720966  0.25772521     0.41600
H1525       H  0.93619194  0.41670073  0.17893666     0.41220
H1526       H  0.96597724  0.41696525  0.14875685     0.36110
C1527       C  0.61822780  0.15262127  0.26454725    -0.25620
C1528       C  0.61826378  0.12371902  0.25616920    -0.13700
C1529       C  0.58795301  0.09637459  0.24480698     0.36930
C1530       C  0.55928614  0.09829837  0.24646419    -0.25070
C1531       C  0.55921839  0.12721903  0.25585498    -0.14310
C1532       C  0.59015708  0.15514242  0.26386987     0.38020
N1533       N  0.59521724  0.18717721  0.26914496    -0.88560
H1534       H  0.64109794  0.17456828  0.26941703     0.19130
H1535       H  0.53709685  0.07711198  0.23653531     0.19120
N1536       N  0.58609868  0.06734925  0.22777938    -0.87590
H1537       H  0.60270566  0.19454080  0.30320545     0.36500
H1538       H  0.57487414  0.18929006  0.26310479     0.41600
H1539       H  0.59675832  0.07239758  0.19484133     0.41220
H1540       H  0.56207546  0.04920874  0.22324612     0.36110
C1541       C  0.63791866  0.04085284  0.28668045    -0.25620
C1542       C  0.64974773  0.03147847  0.24805819    -0.13700
C1543       C  0.66247388  0.05399495  0.21050859     0.36930
C1544       C  0.66248761  0.08326302  0.21249484    -0.25070
C1545       C  0.65020509  0.09219167  0.25068325    -0.14310
C1546       C  0.63771771  0.07016145  0.28818130     0.38020
N1547       N  0.62480844  0.07751684  0.32829382    -0.88560
H1548       H  0.62892435  0.02517131  0.31667020     0.19130
H1549       H  0.67311588  0.09921863  0.18324941     0.19120
N1550       N  0.67669836  0.04862102  0.17017441    -0.87590
H1551       H  0.60073915  0.05934201  0.33251511     0.36500
H1552       H  0.63785651  0.07719378  0.35722574     0.41600
H1553       H  0.70079179  0.06708644  0.16766364     0.41220
H1554       H  0.66425549  0.04979881  0.14105752     0.36110
C1555       C  0.58922196  0.46788291  0.26015659    -0.25620
C1556       C  0.61909245  0.46804823  0.25955448    -0.13700
C1557       C  0.61715596  0.43733736  0.26443562     0.36930
C1558       C  0.58692864  0.40918925  0.26391041    -0.25070
C1559       C  0.55736512  0.40898857  0.25913259    -0.14310
C1560       C  0.55904614  0.43922272  0.26460707     0.38020
N1561       N  0.53119142  0.44122274  0.27905907    -0.88560
H1562       H  0.58873112  0.49006297  0.25832749     0.19130
H1563       H  0.58682106  0.38668662  0.26738074     0.19120
N1564       N  0.64477326  0.43288880  0.27070063    -0.87590
H1565       H  0.53687252  0.46512478  0.28303607     0.36500
H1566       H  0.52425840  0.43047619  0.31176407     0.41600
H1567       H  0.66693709  0.45359842  0.26620674     0.41220
H1568       H  0.64392469  0.41678888  0.24566365     0.36110
C1569       C  0.94607105  0.05274430  0.20972755    -0.25560
C1570       C  0.93672268  0.03261542  0.24930632    -0.13700
C1571       C  0.95834292  0.04410043  0.28756781     0.36930
C1572       C  0.98727565  0.07404879  0.28543580    -0.25070
C1573       C  0.99597508  0.09463960  0.24641362    -0.14310
C1574       C  0.97433719  0.08301369  0.20794087     0.38020
N1575       N  0.97975108  0.10158761  0.16664249    -0.88560
H1576       H  0.93091519  0.04612509  0.17934263     0.19130
H1577       H  0.50291555  0.08179943  0.31555425     0.19120
N1578       N  0.95070659  0.02576679  0.32955667    -0.87590
H1579       H  0.96004528  0.10527028  0.16182020     0.36500
H1580       H  0.98076373  0.08835470  0.13850612     0.41600
H1581       H  0.95009369  0.04003641  0.35648257     0.41220
H1582       H  0.96951926  0.02104557  0.33644835     0.36110
C1583       C  0.87496015  0.41008089  0.26014631    -0.25620
C1584       C  0.90426752  0.40963132  0.25653895    -0.13700
C1585       C  0.93286139  0.43948471  0.26439201     0.36930
C1586       C  0.93197587  0.46846671  0.26081876    -0.25070
C1587       C  0.90255819  0.46910198  0.25902557    -0.14310
C1588       C  0.87334988  0.43848685  0.26189037     0.38020
N1589       N  0.84137795  0.43443592  0.26778089    -0.88560
H1590       H  0.85232053  0.38765042  0.26206256     0.19130
H1591       H  0.95485098  0.49054489  0.26054428     0.19120
N1592       N  0.96224030  0.44062539  0.27907417    -0.87590
H1593       H  0.82606255  0.41854189  0.24261687     0.36500
H1594       H  0.84042981  0.45538174  0.26324668     0.41600
H1595       H  0.95765536  0.42899943  0.31117520     0.41220
H1596       H  0.98061384  0.46430458  0.28449013     0.36110
C1597       C  0.98532976  0.38646086  0.46061766    -0.25620
C1598       C  0.99781737  0.38292980  0.00340262    -0.13700
C1599       C  0.98127026  0.38444303  0.04404370     0.36930
C1600       C  0.95260723  0.38611188  0.04010700    -0.25070
C1601       C  0.93692753  0.38305875  0.99727829    -0.14310
C1602       C  0.95536344  0.38572043  0.45678608     0.38020
N1603       N  0.94387810  0.38774136  0.41149803    -0.88560
H1604       H  0.99869873  0.38889105  0.42904168     0.19130
H1605       H  0.94222837  0.38918169  0.07175456     0.19120
N1606       N  0.99254887  0.38497900  0.09020872    -0.87590
H1607       H  0.95949400  0.38826206  0.38549284     0.36500
H1608       H  0.94390314  0.40947855  0.40922313     0.41600
H1609       H  0.01681878  0.40267229  0.09335157     0.41220
H1610       H  0.98923889  0.36240179  0.09844977     0.36110
C1611       C  0.56839896  0.11579214  0.03609606    -0.25620
C1612       C  0.55987000  0.12901878  0.49832165    -0.13700
C1613       C  0.58484307  0.14508633  0.46394135     0.36930
C1614       C  0.61358669  0.14387568  0.46581316    -0.25070
C1615       C  0.62043870  0.12790637  0.50115956    -0.14310
C1616       C  0.59702575  0.11369856  0.03699969     0.38020
N1617       N  0.60232466  0.09724802  0.07465607    -0.88560
H1618       H  0.55249512  0.10707808  0.06600994     0.19130
H1619       H  0.63134936  0.15729812  0.43934666     0.19120
N1620       N  0.58448713  0.16589246  0.42866718    -0.87590
H1621       H  0.58075313  0.08323600  0.09290865     0.36500
H1622       H  0.61789698  0.11470762  0.09792294     0.41600
H1623       H  0.58152934  0.18416990  0.44334208     0.41220
H1624       H  0.56749828  0.15274788  0.40333957     0.36110
C1625       C  0.62708362  0.03825950  0.98670292    -0.25620
C1626       C  0.65350045  0.03643412  0.00561261    -0.13700
C1627       C  0.68111646  0.06593662  0.51781917     0.36930
C1628       C  0.67982188  0.09449351  0.51750211    -0.25070
C1629       C  0.65159615  0.09553672  0.00535238    -0.14310
C1630       C  0.62548425  0.06685808  0.98678534     0.38020
N1631       N  0.59815148  0.06680921  0.96549357    -0.88560
H1632       H  0.60766898  0.01735290  0.97018958     0.19130
H1633       H  0.70194391  0.11652280  0.52537189     0.19120
N1634       N  0.71131169  0.06757797  0.52857479    -0.87590
H1635       H  0.58062456  0.04361444  0.95567954     0.36500
H1636       H  0.60627407  0.08020520  0.93490134     0.41600
H1637       H  0.71819279  0.07723740  0.56184810     0.41220
H1638       H  0.72888530  0.08351713  0.50540763     0.36110
C1639       C  0.56269986  0.44000744  0.01826135    -0.25620
C1640       C  0.56069915  0.41279675  0.99621470    -0.13700
C1641       C  0.59066327  0.41568297  0.48098021     0.36930
C1642       C  0.61886189  0.44594245  0.47981411    -0.25070
C1643       C  0.62064450  0.47331744  0.00086684    -0.14310
C1644       C  0.59236749  0.46831444  0.02540033     0.38020
N1645       N  0.59290282  0.48935005  0.06132803    -0.88560
H1646       H  0.54162253  0.43844408  0.03489590     0.19130
H1647       H  0.64065757  0.44733398  0.46584021     0.19120
N1648       N  0.59326489  0.38787995  0.46911245    -0.87590
H1649       H  0.58087841  0.50125099  0.04959584     0.36500
H1650       H  0.61626507  0.00597061  0.07182866     0.41600
H1651       H  0.58923593  0.37420421  0.49910641     0.41220
H1652       H  0.61661856  0.39433313  0.45777233     0.36110
C1653       C  0.99477824  0.06799234  0.01936317    -0.25620
C1654       C  0.99538720  0.09726823  0.00980301    -0.13700
C1655       C  0.96453767  0.09553488  0.50727420     0.36930
C1656       C  0.93629374  0.06555411  0.50279506    -0.25070
C1657       C  0.93652555  0.03641456  0.00700166    -0.14310
C1658       C  0.96529515  0.03897114  0.02524668     0.38020
N1659       N  0.96464146  0.01279311  0.05045674    -0.88560
H1660       H  0.51651745  0.06676553  0.02369918     0.19130
H1661       H  0.91348129  0.06490676  0.49725100     0.19120
N1662       N  0.96184453  0.12414150  0.50716642    -0.87590
H1663       H  0.98781927  0.01899387  0.06214518     0.36500
H1664       H  0.95032525  0.00878075  0.07998508     0.41600
H1665       H  0.96688225  0.13371588  0.54053750     0.41220
H1666       H  0.93796068  0.11856254  0.50093551     0.36110
C1667       C  0.93229282  0.44103370  0.48242505    -0.25620
C1668       C  0.90278295  0.41179753  0.48805338    -0.13700
C1669       C  0.87402660  0.41395659  0.98412526     0.36930
C1670       C  0.87566041  0.44386115  0.98643276    -0.25070
C1671       C  0.90525464  0.47295763  0.48939969    -0.14310
C1672       C  0.93302449  0.47071828  0.47725766     0.38020
N1673       N  0.96074053  0.49734601  0.45609017    -0.88560
H1674       H  0.95494376  0.44109960  0.47933111     0.19130
H1675       H  0.85306966  0.44403675  0.98433647     0.19120
N1676       N  0.84291207  0.38620183  0.97627570    -0.87590
H1677       H  0.97849138  0.49129479  0.44804983     0.36500
H1678       H  0.95319303  0.00225674  0.42465197     0.41600
H1679       H  0.83428677  0.38917545  0.94439329     0.41220
H1680       H  0.82688705  0.38547086  0.00176240     0.36110
C1681       C  0.90398066  0.50450600  0.49910317    -0.01790
C1682       C  0.65449451  0.00446661  0.50351189    -0.01790
C1683       C  0.65388322  0.12904551  0.50284183    -0.01790
C1684       C  0.52731685  0.13025943  0.50182828    -0.01790
C1685       C  0.52914325  0.37945710  0.50211199    -0.01790
C1686       C  0.90180571  0.37886979  0.49520408    -0.01790
O1687       O  0.51485386  0.36467693  0.83399669    -0.57120
C1688       C  0.52453870  0.35694366  0.96144523     0.75510
O1689       O  0.95307060  0.29977241  0.91736233    -0.58280
C1690       C  0.52215182  0.35650323  0.79619059     0.75480
C1691       C  0.51307759  0.26133176  0.87741278     0.77870
Cd1692     Cd  0.50537551  0.31720284  0.87973606     1.37470
O1693       O  0.53964546  0.36674246  0.92323487    -0.57120
O1694       O  0.53844018  0.28865558  0.88126560    -0.55930
C1695       C  0.93907155  0.29766093  0.87937557     0.77830
O1696       O  0.98646354  0.26103368  0.87532040    -0.58300
O1697       O  0.50300124  0.32760964  0.96276034    -0.56750
O1698       O  0.02462652  0.33137378  0.79773582    -0.56740
O1699       O  0.95462645  0.30039253  0.84276035    -0.55910
O1700       O  0.51133647  0.12757518  0.92119663    -0.57120
C1701       C  0.52161341  0.14488855  0.79194485     0.75510
O1702       O  0.95154485  0.13383451  0.83852396    -0.58280
C1703       C  0.52103032  0.14409075  0.95788813     0.75480
C1704       C  0.51264904  0.23051656  0.87589687     0.77870
Cd1705     Cd  0.50359362  0.16644761  0.87470936     1.37460
O1706       O  0.53905146  0.15281241  0.82811692    -0.57120
O1707       O  0.53765125  0.22748960  0.87304810    -0.55930
C1708       C  0.93762470  0.12108857  0.87625958     0.77830
O1709       O  0.98566783  0.20494064  0.87727876    -0.58300
O1710       O  0.49810781  0.15015747  0.79291071    -0.56750
O1711       O  0.52380502  0.17178112  0.95588000    -0.56740
O1712       O  0.95288049  0.13301565  0.91334057    -0.55910
O1713       O  0.89921967  0.36549694  0.83112429    -0.57120
C1714       C  0.88350149  0.35611534  0.95554280     0.75510
O1715       O  0.82417004  0.26077059  0.86876535    -0.58280
C1716       C  0.88588609  0.35663548  0.79199298     0.75480
C1717       C  0.90863088  0.29737363  0.87756972     0.77870
Cd1718     Cd  0.86178080  0.31656699  0.87446446     1.37460
O1719       O  0.87369720  0.36449639  0.92000988    -0.57120
O1720       O  0.89762944  0.30065874  0.83941482    -0.55930
C1721       C  0.79804167  0.26113900  0.87386209     0.77830
O1722       O  0.89467438  0.29842580  0.91419571    -0.58300
O1723       O  0.87887049  0.32779815  0.95536678    -0.56750
O1724       O  0.85942727  0.33016474  0.79141462    -0.56740
O1725       O  0.80024976  0.28844754  0.87921129    -0.55910
O1726       O  0.87577672  0.48900873  0.82922678    -0.57120
C1727       C  0.88796186  0.00896661  0.95626258     0.75510
O1728       O  0.89509711  0.07668675  0.83904654    -0.58280
C1729       C  0.88540782  0.00710620  0.79368216     0.75480
C1730       C  0.79903202  0.01547002  0.87547905     0.77870
Cd1731     Cd  0.86335666  0.02486675  0.87517710     1.37470
O1732       O  0.90196474  0.51479709  0.91735459    -0.57120
O1733       O  0.80211802  0.49095150  0.86883247    -0.55930
C1734       C  0.90792384  0.09071804  0.87657763     0.77830
O1735       O  0.82462404  0.04183321  0.88171988    -0.58300
O1736       O  0.86073044  0.00780680  0.95711501    -0.56750
O1737       O  0.88141563  0.03126626  0.79459361    -0.56740
O1738       O  0.89687224  0.07527857  0.91390503    -0.55910
O1739       O  0.66370458  0.51115541  0.92043258    -0.57120
C1740       C  0.67406118  0.00586901  0.79429342     0.75510
O1741       O  0.73264634  0.07670154  0.84226817    -0.58280
C1742       C  0.67382500  0.00797960  0.95950457     0.75480
C1743       C  0.76822388  0.01536436  0.87587374     0.77870
Cd1744     Cd  0.71296820  0.02418862  0.87675051     1.37460
O1745       O  0.66470522  0.48851364  0.83059255    -0.57120
O1746       O  0.74058969  0.49063106  0.87041127    -0.55930
C1747       C  0.73208568  0.08974264  0.87999686     0.77830
O1748       O  0.76890692  0.04171906  0.88171794    -0.58300
O1749       O  0.70245439  0.02970968  0.79526887    -0.56750
O1750       O  0.70094643  0.00890029  0.95955136    -0.56740
O1751       O  0.72663849  0.07352436  0.91666713    -0.55910
O1752       O  0.66441872  0.13110141  0.92029903    -0.57120
C1753       C  0.67336823  0.14289853  0.79451419     0.75510
O1754       O  0.76918769  0.20488839  0.87518990    -0.58280
C1755       C  0.67401279  0.14442912  0.95935277     0.75480
C1756       C  0.73245694  0.11998261  0.88033225     0.77870
Cd1757     Cd  0.71304505  0.16634119  0.87645839     1.37470
O1758       O  0.66414904  0.15281947  0.82904604    -0.57120
O1759       O  0.72693463  0.13066764  0.91720247    -0.55930
C1760       C  0.76765090  0.23036501  0.87429076     0.77830
O1761       O  0.73370531  0.13409393  0.84282139    -0.58300
O1762       O  0.70179767  0.14725310  0.79673165    -0.56750
O1763       O  0.70125989  0.17006769  0.95973019    -0.56740
O1764       O  0.73953235  0.22725402  0.87381725    -0.55910
C1765       C  0.90230585  0.00149860  0.75271386    -0.01790
C1766       C  0.65220530  0.99995628  0.75245676    -0.01790
C1767       C  0.65196943  0.12559089  0.75272769    -0.01790
C1768       C  0.52728911  0.12876697  0.74999836    -0.01790
C1769       C  0.52611593  0.37551492  0.75163993    -0.01790
C1770       C  0.90231780  0.37633394  0.74836175    -0.01790
O1771       O  0.89026531  0.98823026  0.67129214    -0.57120
C1772       C  0.88287966  0.49964282  0.54209017     0.75510
O1773       O  0.82037191  0.42677607  0.59030737    -0.58280
C1774       C  0.88310059  0.49744874  0.70828487     0.75480
C1775       C  0.78714178  0.48770420  0.62841220     0.77870
Cd1776     Cd  0.84409923  0.48099229  0.62513248     1.37470
O1777       O  0.89329971  0.01676796  0.57839101    -0.57120
O1778       O  0.81421013  0.01226683  0.61882121    -0.55930
C1779       C  0.82685446  0.41567091  0.62587849     0.77830
O1780       O  0.78748670  0.46212142  0.63744674    -0.58300
O1781       O  0.85365363  0.47760651  0.54365994    -0.56750
O1782       O  0.85913799  0.50221943  0.70584426    -0.56740
O1783       O  0.83707100  0.43349870  0.66096251    -0.55910
O1784       O  0.65050001  0.98264174  0.67309518    -0.57120
C1785       C  0.67098121  0.49906907  0.54528909     0.75510
O1786       O  0.73038688  0.46112677  0.63662723    -0.58280
C1787       C  0.66728530  0.99445434  0.70919077     0.75480
C1788       C  0.64578405  0.41282425  0.62594353     0.77870
Cd1789     Cd  0.69146175  0.47872368  0.62664234     1.37460
O1790       O  0.67728256  0.01492962  0.58267595    -0.57120
O1791       O  0.65782562  0.42771327  0.66319197    -0.55930
C1792       C  0.75598717  0.48720553  0.62830642     0.77830
O1793       O  0.65837118  0.42719329  0.58836770    -0.58300
O1794       O  0.67756089  0.47655816  0.54496682    -0.56750
O1795       O  0.69661329  0.50103267  0.70659558    -0.56740
O1796       O  0.75271966  0.01136013  0.61929789    -0.55910
O1797       O  0.65378870  0.13854118  0.67083737    -0.57120
C1798       C  0.67125741  0.14996993  0.54489906     0.75510
O1799       O  0.66029798  0.20779849  0.59405281    -0.58280
C1800       C  0.66807878  0.14591186  0.70949768     0.75480
C1801       C  0.75659509  0.24214456  0.62801303     0.77870
Cd1802     Cd  0.69237992  0.18733688  0.62876082     1.37470
O1803       O  0.68009072  0.14014247  0.57990440    -0.57120
O1804       O  0.75362235  0.21471706  0.62052655    -0.55930
C1805       C  0.64653846  0.20796142  0.63142035     0.77830
O1806       O  0.73100011  0.24289109  0.63672052    -0.58300
O1807       O  0.67593141  0.17826290  0.54748367    -0.56750
O1808       O  0.69543761  0.17147395  0.71000113    -0.56740
O1809       O  0.65706795  0.20270879  0.66866142    -0.55910
O1810       O  0.51554914  0.14214778  0.57983944    -0.57120
C1811       C  0.53272611  0.14916722  0.70678128     0.75510
O1812       O  0.60331159  0.20788868  0.59231043    -0.58280
C1813       C  0.53224245  0.15205161  0.54294147     0.75480
C1814       C  0.54230776  0.24499881  0.62490657     0.77870
Cd1815     Cd  0.55079011  0.19003829  0.62586325     1.37460
O1816       O  0.54447065  0.14414287  0.67044296    -0.57120
O1817       O  0.51718730  0.21739961  0.62363457    -0.55930
C1818       C  0.61664062  0.20879830  0.63050337     0.77830
O1819       O  0.56928031  0.24603638  0.62721576    -0.58300
O1820       O  0.52706554  0.17239661  0.70491948    -0.56750
O1821       O  0.55513806  0.18078357  0.54328100    -0.56740
O1822       O  0.60082758  0.20575071  0.66722005    -0.55910
O1823       O  0.88833463  0.34564282  0.56722761    -0.57120
C1824       C  0.88155613  0.35964419  0.70573146     0.75510
O1825       O  0.81926287  0.36759061  0.59041913    -0.58280
C1826       C  0.88186570  0.36210959  0.53913189     0.75480
C1827       C  0.78728461  0.27261566  0.62612463     0.77870
Cd1828     Cd  0.84311659  0.33648914  0.62281405     1.37470
O1829       O  0.89257060  0.35297708  0.66973484    -0.57120
O1830       O  0.81483081  0.27523128  0.61941297    -0.55930
C1831       C  0.82703265  0.38561419  0.62568610     0.77830
O1832       O  0.78669109  0.29838272  0.63085331    -0.58300
O1833       O  0.85202862  0.35183262  0.70412741    -0.56750
O1834       O  0.85649217  0.36296802  0.54868878    -0.56740
O1835       O  0.83874250  0.37854126  0.65992631    -0.55910
O1836       O  0.51621707  0.35504242  0.67181973    -0.57120
C1837       C  0.53364960  0.36391587  0.54563822     0.75510
O1838       O  0.60133487  0.36936692  0.58908557    -0.58280
C1839       C  0.53148268  0.35927863  0.70951784     0.75480
C1840       C  0.54184825  0.27522567  0.62387526     0.77870
Cd1841     Cd  0.54902734  0.33818335  0.62649284     1.37460
O1842       O  0.51463972  0.33492607  0.55755637    -0.57120
O1843       O  0.51654467  0.27747671  0.62864456    -0.55930
C1844       C  0.61540826  0.38288871  0.62644137     0.77830
O1845       O  0.56823974  0.30105219  0.61888592    -0.58300
O1846       O  0.55769137  0.37957550  0.57180661    -0.56750
O1847       O  0.55202709  0.34991806  0.70962000    -0.56740
O1848       O  0.59990143  0.37226854  0.66399270    -0.55910
C1849       C  0.93525393  0.34804217  0.75267408    -0.25620
C1850       C  0.93478614  0.37631587  0.74084737    -0.13700
C1851       C  0.96152019  0.39840752  0.71284436     0.36930
C1852       C  0.99105542  0.39809626  0.71558109    -0.25070
C1853       C  0.99352600  0.37482791  0.74256058    -0.14310
C1854       C  0.96366477  0.34634470  0.75060183     0.38020
N1855       N  0.96189355  0.31555165  0.75291878    -0.88560
H1856       H  0.91290150  0.32646348  0.76108630     0.19130
H1857       H  0.01202001  0.41614962  0.69693117     0.19120
N1858       N  0.95987095  0.42107443  0.68189584    -0.87590
H1859       H  0.96874923  0.31105596  0.72060389     0.36500
H1860       H  0.93795479  0.29720961  0.75772461     0.41600
H1861       H  0.93619202  0.41670099  0.67893638     0.41220
H1862       H  0.96597723  0.41696537  0.64875644     0.36110
C1863       C  0.61822732  0.15262118  0.76454740    -0.25620
C1864       C  0.61826329  0.12371895  0.75616908    -0.13700
C1865       C  0.58795255  0.09637461  0.74480649     0.36930
C1866       C  0.55928568  0.09829840  0.74646379    -0.25070
C1867       C  0.55921792  0.12721900  0.75585500    -0.14310
C1868       C  0.59015661  0.15514234  0.76387011     0.38020
N1869       N  0.59521679  0.18717712  0.76914548    -0.88560
H1870       H  0.64109745  0.17456815  0.76941735     0.19130
H1871       H  0.53709641  0.07711208  0.73653464     0.19120
N1872       N  0.58609828  0.06734939  0.72777846    -0.87590
H1873       H  0.60270508  0.19454054  0.80320606     0.36500
H1874       H  0.57487373  0.18929004  0.76310521     0.41600
H1875       H  0.59675814  0.07239798  0.69484055     0.41220
H1876       H  0.56207508  0.04920895  0.72324479     0.36110
C1877       C  0.63791797  0.04085260  0.78668014    -0.25620
C1878       C  0.64974747  0.03147847  0.74805812    -0.13700
C1879       C  0.66247415  0.05399524  0.71050892     0.36930
C1880       C  0.66248762  0.08326318  0.71249508    -0.25070
C1881       C  0.65020458  0.09219155  0.75068317    -0.14310
C1882       C  0.63771689  0.07016116  0.78818098     0.38020
N1883       N  0.62480723  0.07751633  0.82829327    -0.88560
H1884       H  0.62892339  0.02517092  0.81666972     0.19130
H1885       H  0.67311628  0.09921900  0.68324996     0.19120
N1886       N  0.67669965  0.04862186  0.67017542    -0.87590
H1887       H  0.60073793  0.05934144  0.83251412     0.36500
H1888       H  0.63785507  0.07719320  0.85722542     0.41600
H1889       H  0.70079307  0.06708743  0.66766574     0.41220
H1890       H  0.66425737  0.04979983  0.64105794     0.36110
C1891       C  0.58922167  0.46788282  0.76015608    -0.25620
C1892       C  0.61909218  0.46804818  0.75955418    -0.13700
C1893       C  0.61715573  0.43733734  0.76443546     0.36930
C1894       C  0.58692843  0.40918920  0.76391033    -0.25070
C1895       C  0.55736489  0.40898847  0.75913241    -0.14310
C1896       C  0.55904588  0.43922262  0.76460670     0.38020
N1897       N  0.53119116  0.44122264  0.77905871    -0.88560
H1898       H  0.58873077  0.49006284  0.75832672     0.19130
H1899       H  0.58682088  0.38668659  0.76738080     0.19120
N1900       N  0.64477304  0.43288881  0.77070059    -0.87590
H1901       H  0.53687224  0.46512468  0.78303560     0.36500
H1902       H  0.52425819  0.43047615  0.81176376     0.41600
H1903       H  0.66693686  0.45359845  0.76620677     0.41220
H1904       H  0.64392453  0.41678891  0.74566363     0.36110
C1905       C  0.94607053  0.05274440  0.70972759    -0.25560
C1906       C  0.93672235  0.03261542  0.74930623    -0.13700
C1907       C  0.95834263  0.04410039  0.78756766     0.36930
C1908       C  0.98727532  0.07404876  0.78543565    -0.25070
C1909       C  0.99597462  0.09463965  0.74641359    -0.14310
C1910       C  0.97433657  0.08301388  0.70794101     0.38020
N1911       N  0.97975012  0.10158809  0.66664302    -0.88560
H1912       H  0.93091454  0.04612520  0.67934279     0.19130
H1913       H  0.50291530  0.08179935  0.81555402     0.19120
N1914       N  0.95070639  0.02576666  0.82955643    -0.87590
H1915       H  0.96004420  0.10527065  0.66182134     0.36500
H1916       H  0.98076270  0.08835543  0.63850625     0.41600
H1917       H  0.95009349  0.04003622  0.85648245     0.41220
H1918       H  0.96951910  0.02104548  0.83644796     0.36110
C1919       C  0.87496026  0.41008102  0.76014716    -0.25620
C1920       C  0.90426763  0.40963154  0.75653909    -0.13700
C1921       C  0.93286153  0.43948497  0.76439166     0.36930
C1922       C  0.93197590  0.46846689  0.76081845    -0.25070
C1923       C  0.90255814  0.46910204  0.75902573    -0.14310
C1924       C  0.87334989  0.43848691  0.76189111     0.38020
N1925       N  0.84137801  0.43443596  0.76778230    -0.88560
H1926       H  0.85232068  0.38765051  0.76206392     0.19130
H1927       H  0.95485098  0.49054511  0.76054351     0.19120
N1928       N  0.96224060  0.44062576  0.77907330    -0.87590
H1929       H  0.82606212  0.41854099  0.74261953     0.36500
H1930       H  0.84042964  0.45538154  0.76324636     0.41600
H1931       H  0.95765593  0.42899991  0.81117438     0.41220
H1932       H  0.98061414  0.46430499  0.78448898     0.36110
C1933       C  0.98532950  0.38646086  0.96061745    -0.25620
C1934       C  0.99781777  0.38292991  0.50340276    -0.13700
C1935       C  0.98127082  0.38444332  0.54404392     0.36930
C1936       C  0.95260780  0.38611221  0.54010737    -0.25070
C1937       C  0.93692793  0.38305892  0.49727878    -0.14310
C1938       C  0.95536315  0.38572035  0.95678570     0.38020
N1939       N  0.94387785  0.38774120  0.91149758    -0.88560
H1940       H  0.99869857  0.38889114  0.92904155     0.19130
H1941       H  0.94222917  0.38918229  0.57175495     0.19120
N1942       N  0.99254957  0.38497941  0.59020887    -0.87590
H1943       H  0.95949382  0.38826197  0.88549247     0.36500
H1944       H  0.94390279  0.40947834  0.90922260     0.41600
H1945       H  0.01681951  0.40267267  0.59335153     0.41220
H1946       H  0.98923956  0.36240220  0.59845000     0.36110
C1947       C  0.56839948  0.11579232  0.53609605    -0.25620
C1948       C  0.55986936  0.12901830  0.99832140    -0.13700
C1949       C  0.58484225  0.14508541  0.96394072     0.36930
C1950       C  0.61358597  0.14387497  0.96581281    -0.25070
C1951       C  0.62043820  0.12790611  0.00115965    -0.14310
C1952       C  0.59702618  0.11369860  0.53699949     0.38020
N1953       N  0.60232489  0.09724763  0.57465546    -0.88560
H1954       H  0.55249557  0.10707810  0.56600986     0.19130
H1955       H  0.63134849  0.15729710  0.93934599     0.19120
N1956       N  0.58448591  0.16589067  0.92866548    -0.87590
H1957       H  0.58075342  0.08323593  0.59290835     0.36500
H1958       H  0.61789765  0.11470696  0.59792227     0.41600
H1959       H  0.58152833  0.18416850  0.94333938     0.41220
H1960       H  0.56749677  0.15274542  0.90333855     0.36110
C1961       C  0.62708407  0.03825976  0.48670241    -0.25620
C1962       C  0.65350087  0.03643435  0.50561216    -0.13700
C1963       C  0.68111604  0.06593642  0.01781957     0.36930
C1964       C  0.67982143  0.09449331  0.01750246    -0.25070
C1965       C  0.65159661  0.09553694  0.50535204    -0.14310
C1966       C  0.62548473  0.06685835  0.48678487     0.38020
N1967       N  0.59815200  0.06680953  0.46549307    -0.88560
H1968       H  0.60766943  0.01735317  0.47018904     0.19130
H1969       H  0.70194346  0.11652261  0.02537216     0.19120
N1970       N  0.71131128  0.06757781  0.02857515    -0.87590
H1971       H  0.58062510  0.04361479  0.45567889     0.36500
H1972       H  0.60627464  0.08020562  0.43490093     0.41600
H1973       H  0.71819240  0.07723727  0.06184844     0.41220
H1974       H  0.72888486  0.08351694  0.00540794     0.36110
C1975       C  0.56270023  0.44000766  0.51826111    -0.25620
C1976       C  0.56069956  0.41279692  0.49621466    -0.13700
C1977       C  0.59066286  0.41568278  0.98098028     0.36930
C1978       C  0.61886151  0.44594225  0.97981435    -0.25070
C1979       C  0.62064485  0.47331768  0.50086648    -0.14310
C1980       C  0.59236784  0.46831469  0.52539995     0.38020
N1981       N  0.59290315  0.48935038  0.56132752    -0.88560
H1982       H  0.54162290  0.43844432  0.53489561     0.19130
H1983       H  0.64065720  0.44733378  0.96584044     0.19120
N1984       N  0.59326445  0.38787976  0.96911241    -0.87590
H1985       H  0.58087874  0.50125130  0.54959522     0.36500
H1986       H  0.61626539  0.00597095  0.57182816     0.41600
H1987       H  0.58923541  0.37420395  0.99910631     0.41220
H1988       H  0.61661813  0.39433293  0.95777237     0.36110
C1989       C  0.99477888  0.06799267  0.51936321    -0.25620
C1990       C  0.99538781  0.09726857  0.50980319    -0.13700
C1991       C  0.96453707  0.09553455  0.00727379     0.36930
C1992       C  0.93629318  0.06555379  0.00279432    -0.25070
C1993       C  0.93652613  0.03641489  0.50700239    -0.14310
C1994       C  0.96529582  0.03897150  0.52524705     0.38020
N1995       N  0.96464226  0.01279353  0.55045711    -0.88560
H1996       H  0.51651808  0.06676581  0.52369882     0.19130
H1997       H  0.91348075  0.06490646  0.99725012     0.19120
N1998       N  0.96184393  0.12414116  0.00716615    -0.87590
H1999       H  0.98782013  0.01899431  0.56214529     0.36500
H2000       H  0.95032621  0.00878125  0.57998561     0.41600
H2001       H  0.96688165  0.13371549  0.04053727     0.41220
H2002       H  0.93796007  0.11856221  0.00093527     0.36110
C2003       C  0.93229227  0.44103342  0.98242435    -0.25620
C2004       C  0.90278245  0.41179724  0.98805279    -0.13700
C2005       C  0.87402715  0.41395696  0.48412563     0.36930
C2006       C  0.87566101  0.44386152  0.48643329    -0.25070
C2007       C  0.90525403  0.47295730  0.98939905    -0.14310
C2008       C  0.93302389  0.47071799  0.97725702     0.38020
N2009       N  0.96073993  0.49734577  0.95608962    -0.88560
H2010       H  0.95494323  0.44109937  0.97933036     0.19130
H2011       H  0.85307029  0.44403717  0.48433692     0.19120
N2012       N  0.84291267  0.38620230  0.47627539    -0.87590
H2013       H  0.97849082  0.49129459  0.94804927     0.36500
H2014       H  0.95319245  0.00225652  0.92465143     0.41600
H2015       H  0.83428775  0.38917614  0.44439278     0.41220
H2016       H  0.82688738  0.38547128  0.50176167     0.36110
C2017       C  0.90398005  0.00450568  0.99910254    -0.01790
C2018       C  0.65449415  0.50446639  0.00351222    -0.01790
C2019       C  0.65388275  0.62904530  0.00284201    -0.01790
C2020       C  0.52731625  0.63025906  0.00182807    -0.01790
C2021       C  0.52914282  0.87945694  0.00211197    -0.01790
C2022       C  0.90180529  0.87886953  0.99520345    -0.01790
O2023       O  0.51485420  0.86467700  0.33399689    -0.57120
C2024       C  0.52453915  0.85694382  0.46144525     0.75510
O2025       O  0.95307139  0.79977309  0.41736279    -0.58280
C2026       C  0.52215211  0.85650332  0.29619073     0.75480
C2027       C  0.51307823  0.76133194  0.37741297     0.77870
Cd2028     Cd  0.50537600  0.81720294  0.37973619     1.37470
O2029       O  0.53964588  0.86674264  0.42323487    -0.57120
O2030       O  0.53844080  0.78865579  0.38126558    -0.55930
C2031       C  0.93907205  0.79766103  0.37937611     0.77830
O2032       O  0.98646414  0.76103380  0.37532088    -0.58300
O2033       O  0.50300180  0.82760977  0.46276043    -0.56750
O2034       O  0.02462683  0.83137388  0.29773587    -0.56740
O2035       O  0.95462662  0.80039196  0.34276079    -0.55910
O2036       O  0.51133754  0.62757558  0.42119663    -0.57120
C2037       C  0.52161392  0.64488856  0.29194485     0.75510
O2038       O  0.95154543  0.63383477  0.33852415    -0.58280
C2039       C  0.52103095  0.64409105  0.45788827     0.75480
C2040       C  0.51264973  0.73051675  0.37589697     0.77870
Cd2041     Cd  0.50359431  0.66644780  0.37470938     1.37460
O2042       O  0.53905207  0.65281252  0.32811684    -0.57120
O2043       O  0.53765195  0.72748982  0.37304804    -0.55930
C2044       C  0.93762540  0.62108874  0.37625980     0.77830
O2045       O  0.98566853  0.70494082  0.37727890    -0.58300
O2046       O  0.49810830  0.65015745  0.29291081    -0.56750
O2047       O  0.52380531  0.67178127  0.45588018    -0.56740
O2048       O  0.95288132  0.63301572  0.41334073    -0.55910
O2049       O  0.89921989  0.86549711  0.33112471    -0.57120
C2050       C  0.88350188  0.85611559  0.45554344     0.75510
O2051       O  0.82417060  0.76077078  0.36876623    -0.58280
C2052       C  0.88588621  0.85663545  0.29199349     0.75480
C2053       C  0.90863142  0.79737386  0.37757037     0.77870
Cd2054     Cd  0.86178128  0.81656718  0.37446517     1.37460
O2055       O  0.87369781  0.86449670  0.42001035    -0.57120
O2056       O  0.89762981  0.80065874  0.33941548    -0.55930
C2057       C  0.79804221  0.76113917  0.37386271     0.77830
O2058       O  0.89467515  0.79842635  0.41419640    -0.58300
O2059       O  0.87887069  0.82779833  0.45536759    -0.56750
O2060       O  0.85942746  0.83016465  0.29141536    -0.56740
O2061       O  0.80025026  0.78844770  0.37921185    -0.55910
O2062       O  0.87577698  0.98900873  0.32922688    -0.57120
C2063       C  0.88796254  0.50896696  0.45626312     0.75510
O2064       O  0.89509772  0.57668693  0.33904686    -0.58280
C2065       C  0.88540817  0.50710629  0.29368236     0.75480
C2066       C  0.79903265  0.51547026  0.37547938     0.77870
Cd2067     Cd  0.86335728  0.52486695  0.37517750     1.37470
O2068       O  0.90196543  0.01479737  0.41735514    -0.57120
O2069       O  0.80211865  0.99095172  0.36883303    -0.55930
C2070       C  0.90792453  0.59071822  0.37657792     0.77830
O2071       O  0.82462467  0.54183347  0.38172013    -0.58300
O2072       O  0.86073113  0.50780717  0.45711545    -0.56750
O2073       O  0.88141621  0.53126649  0.29459404    -0.56740
O2074       O  0.89687299  0.57527876  0.41390534    -0.55910
O2075       O  0.66370510  0.01115559  0.42043230    -0.57120
C2076       C  0.67406159  0.50586905  0.29429339     0.75510
O2077       O  0.73264689  0.57670171  0.34226802    -0.58280
C2078       C  0.67382544  0.50797978  0.45950434     0.75480
C2079       C  0.76822450  0.51536459  0.37587390     0.77870
Cd2080     Cd  0.71296875  0.52418878  0.37675039     1.37460
O2081       O  0.66470573  0.98851371  0.33059255    -0.57120
O2082       O  0.74059032  0.99063126  0.37041147    -0.55930
C2083       C  0.73208619  0.58974279  0.37999672     0.77830
O2084       O  0.76890752  0.54171930  0.38171786    -0.58300
O2085       O  0.70245480  0.52970972  0.29526872    -0.56750
O2086       O  0.70094686  0.50890045  0.45955126    -0.56740
O2087       O  0.72663900  0.57352450  0.41666698    -0.55910
O2088       O  0.66441912  0.63110183  0.42029882    -0.57120
C2089       C  0.67336881  0.64289876  0.29451409     0.75510
O2090       O  0.76918824  0.70488857  0.37519010    -0.58280
C2091       C  0.67401328  0.64442939  0.45935264     0.75480
C2092       C  0.73245743  0.61998275  0.38033212     0.77870
Cd2093     Cd  0.71304560  0.66634140  0.37645832     1.37470
O2094       O  0.66414964  0.65281971  0.32904593    -0.57120
O2095       O  0.72693504  0.63066772  0.41720234    -0.55930
C2096       C  0.76765145  0.73036519  0.37429109     0.77830
O2097       O  0.73370587  0.63409412  0.34282130    -0.58300
O2098       O  0.70179827  0.64725338  0.29673149    -0.56750
O2099       O  0.70126050  0.67006781  0.45973018    -0.56740
O2100       O  0.73953290  0.72725421  0.37381742    -0.55910
C2101       C  0.90230608  0.50149868  0.25271392    -0.01790
C2102       C  0.65220557  0.49995629  0.25245686    -0.01790
C2103       C  0.65196994  0.62559101  0.25272769    -0.01790
C2104       C  0.52728956  0.62876695  0.24999835    -0.01790
C2105       C  0.52611613  0.87551502  0.25164012    -0.01790
C2106       C  0.90231778  0.87633370  0.24836206    -0.01790
O2107       O  0.89026573  0.48823104  0.17129204    -0.57120
C2108       C  0.88287919  0.99964259  0.04208963     0.75510
O2109       O  0.82036837  0.92677464  0.09031035    -0.58280
C2110       C  0.88310080  0.99744907  0.20828501     0.75480
C2111       C  0.78714187  0.98770410  0.12841320     0.77870
Cd2112     Cd  0.84409947  0.98099252  0.12513249     1.37470
O2113       O  0.89329916  0.51676829  0.07838997    -0.57120
O2114       O  0.81421007  0.51226666  0.11882134    -0.55930
C2115       C  0.82685580  0.91567149  0.12587922     0.77830
O2116       O  0.78748702  0.96212154  0.13744866    -0.58300
O2117       O  0.85365337  0.97760586  0.04366001    -0.56750
O2118       O  0.85913794  0.00221940  0.20584466    -0.56740
O2119       O  0.83707679  0.93350109  0.16096087    -0.55910
O2120       O  0.65049994  0.48264110  0.17309558    -0.57120
C2121       C  0.67098097  0.99906885  0.04528930     0.75510
O2122       O  0.73038692  0.96112658  0.13662838    -0.58280
C2123       C  0.66728546  0.49445427  0.20919082     0.75480
C2124       C  0.64578396  0.91282398  0.12594346     0.77870
Cd2125     Cd  0.69146171  0.97872341  0.12664241     1.37460
O2126       O  0.67728236  0.51492935  0.08267620    -0.57120
O2127       O  0.65782546  0.92771298  0.16319193    -0.55930
C2128       C  0.75598718  0.98720529  0.12830715     0.77830
O2129       O  0.65837122  0.92719301  0.08836766    -0.58300
O2130       O  0.67756075  0.97655800  0.04496686    -0.56750
O2131       O  0.69661357  0.00103305  0.20659528    -0.56740
O2132       O  0.75271958  0.51135973  0.11929778    -0.55910
O2133       O  0.65378894  0.63854126  0.17083740    -0.57120
C2134       C  0.67125701  0.64996984  0.04489915     0.75510
O2135       O  0.66029809  0.70779885  0.09405269    -0.58280
C2136       C  0.66807916  0.64591194  0.20949760     0.75480
C2137       C  0.75659518  0.74214475  0.12801330     0.77870
Cd2138     Cd  0.69237990  0.68733705  0.12876074     1.37470
O2139       O  0.68009039  0.64014246  0.07990450    -0.57120
O2140       O  0.75362228  0.71471731  0.12052561    -0.55930
C2141       C  0.64653838  0.70796155  0.13142016     0.77830
O2142       O  0.73100029  0.74289125  0.13672168    -0.58300
O2143       O  0.67593108  0.67826284  0.04748361    -0.56750
O2144       O  0.69543795  0.67147407  0.21000091    -0.56740
O2145       O  0.65706772  0.70270874  0.16866124    -0.55910
O2146       O  0.51554865  0.64214755  0.07983926    -0.57120
C2147       C  0.53272644  0.64916717  0.20678124     0.75510
O2148       O  0.60331138  0.70788845  0.09231008    -0.58280
C2149       C  0.53224194  0.65205128  0.04294126     0.75480
C2150       C  0.54230751  0.74499866  0.12490632     0.77870
Cd2151     Cd  0.55078991  0.69003812  0.12586300     1.37460
O2152       O  0.54447131  0.64414311  0.17044303    -0.57120
O2153       O  0.51718704  0.71739944  0.12363531    -0.55930
C2154       C  0.61664049  0.70879835  0.13050305     0.77830
O2155       O  0.56928011  0.74603625  0.12721451    -0.58300
O2156       O  0.52706537  0.67239624  0.20491928    -0.56750
O2157       O  0.55513766  0.68078319  0.04328076    -0.56740
O2158       O  0.60082750  0.70575093  0.16721972    -0.55910
O2159       O  0.88833377  0.84564143  0.06722578    -0.57120
C2160       C  0.88155615  0.85964355  0.20573188     0.75510
O2161       O  0.81925956  0.86758859  0.09042216    -0.58280
C2162       C  0.88186543  0.86210929  0.03913130     0.75480
C2163       C  0.78728479  0.77261582  0.12612519     0.77870
Cd2164     Cd  0.84311704  0.83648913  0.12281396     1.37470
O2165       O  0.89257082  0.85297672  0.16973519    -0.57120
O2166       O  0.81483079  0.77523134  0.11941181    -0.55930
C2167       C  0.82703415  0.88561487  0.12568661     0.77830
O2168       O  0.78669154  0.79838291  0.13085566    -0.58300
O2169       O  0.85202850  0.85183150  0.20412787    -0.56750
O2170       O  0.85649272  0.86296888  0.04868955    -0.56740
O2171       O  0.83874857  0.87854453  0.15992387    -0.55910
O2172       O  0.51621706  0.85504251  0.17181990    -0.57120
C2173       C  0.53364917  0.86391571  0.04563824     0.75510
O2174       O  0.60133463  0.86936687  0.08908538    -0.58280
C2175       C  0.53148278  0.85927874  0.20951792     0.75480
C2176       C  0.54184797  0.77522551  0.12387504     0.77870
Cd2177     Cd  0.54902712  0.83818325  0.12649276     1.37460
O2178       O  0.51463934  0.83492589  0.05755637    -0.57120
O2179       O  0.51654448  0.77747659  0.12864539    -0.55930
C2180       C  0.61540811  0.88288849  0.12644121     0.77830
O2181       O  0.56823935  0.80105201  0.11888473    -0.58300
O2182       O  0.55769092  0.87957537  0.07180665    -0.56750
O2183       O  0.55202718  0.84991815  0.20961992    -0.56740
O2184       O  0.59990133  0.87226821  0.16399255    -0.55910
C2185       C  0.93525410  0.84804216  0.25267463    -0.25620
C2186       C  0.93478621  0.87631578  0.24084783    -0.13700
C2187       C  0.96152024  0.89840748  0.21284483     0.36930
C2188       C  0.99105552  0.89809632  0.21558157    -0.25070
C2189       C  0.99352617  0.87482799  0.24256100    -0.14310
C2190       C  0.96366497  0.84634476  0.25060235     0.38020
N2191       N  0.96189381  0.81555173  0.25291935    -0.88560
H2192       H  0.91290170  0.82646345  0.26108694     0.19130
H2193       H  0.01202008  0.91614971  0.19693163     0.19120
N2194       N  0.95987090  0.92107430  0.18189622    -0.87590
H2195       H  0.96874948  0.81105602  0.22060446     0.36500
H2196       H  0.93795506  0.79720966  0.25772521     0.41600
H2197       H  0.93619193  0.91670073  0.17893666     0.41220
H2198       H  0.96597724  0.91696525  0.14875685     0.36110
C2199       C  0.61822780  0.65262127  0.26454725    -0.25620
C2200       C  0.61826378  0.62371902  0.25616920    -0.13700
C2201       C  0.58795301  0.59637459  0.24480697     0.36930
C2202       C  0.55928614  0.59829837  0.24646418    -0.25070
C2203       C  0.55921839  0.62721903  0.25585497    -0.14310
C2204       C  0.59015708  0.65514242  0.26386987     0.38020
N2205       N  0.59521724  0.68717721  0.26914495    -0.88560
H2206       H  0.64109794  0.67456828  0.26941703     0.19130
H2207       H  0.53709685  0.57711198  0.23653531     0.19120
N2208       N  0.58609868  0.56734925  0.22777937    -0.87590
H2209       H  0.60270566  0.69454080  0.30320545     0.36500
H2210       H  0.57487414  0.68929006  0.26310479     0.41600
H2211       H  0.59675832  0.57239758  0.19484132     0.41220
H2212       H  0.56207546  0.54920874  0.22324611     0.36110
C2213       C  0.63791866  0.54085284  0.28668044    -0.25620
C2214       C  0.64974773  0.53147847  0.24805819    -0.13700
C2215       C  0.66247388  0.55399495  0.21050859     0.36930
C2216       C  0.66248761  0.58326302  0.21249484    -0.25070
C2217       C  0.65020509  0.59219167  0.25068325    -0.14310
C2218       C  0.63771771  0.57016145  0.28818130     0.38020
N2219       N  0.62480844  0.57751684  0.32829382    -0.88560
H2220       H  0.62892435  0.52517130  0.31667020     0.19130
H2221       H  0.67311588  0.59921863  0.18324941     0.19120
N2222       N  0.67669836  0.54862102  0.17017441    -0.87590
H2223       H  0.60073915  0.55934201  0.33251511     0.36500
H2224       H  0.63785651  0.57719378  0.35722573     0.41600
H2225       H  0.70079179  0.56708644  0.16766364     0.41220
H2226       H  0.66425550  0.54979881  0.14105752     0.36110
C2227       C  0.58922196  0.96788292  0.26015659    -0.25620
C2228       C  0.61909245  0.96804823  0.25955448    -0.13700
C2229       C  0.61715596  0.93733736  0.26443562     0.36930
C2230       C  0.58692864  0.90918926  0.26391041    -0.25070
C2231       C  0.55736512  0.90898857  0.25913259    -0.14310
C2232       C  0.55904614  0.93922272  0.26460707     0.38020
N2233       N  0.53119142  0.94122275  0.27905907    -0.88560
H2234       H  0.58873111  0.99006298  0.25832750     0.19130
H2235       H  0.58682106  0.88668662  0.26738074     0.19120
N2236       N  0.64477326  0.93288879  0.27070063    -0.87590
H2237       H  0.53687252  0.96512478  0.28303607     0.36500
H2238       H  0.52425840  0.93047619  0.31176407     0.41600
H2239       H  0.66693708  0.95359842  0.26620675     0.41220
H2240       H  0.64392468  0.91678888  0.24566366     0.36110
C2241       C  0.94607105  0.55274430  0.20972755    -0.25560
C2242       C  0.93672268  0.53261542  0.24930631    -0.13700
C2243       C  0.95834292  0.54410043  0.28756781     0.36930
C2244       C  0.98727565  0.57404879  0.28543580    -0.25070
C2245       C  0.99597508  0.59463960  0.24641361    -0.14310
C2246       C  0.97433719  0.58301369  0.20794086     0.38020
N2247       N  0.97975108  0.60158761  0.16664248    -0.88560
H2248       H  0.93091519  0.54612508  0.17934263     0.19130
H2249       H  0.50291555  0.58179943  0.31555425     0.19120
N2250       N  0.95070659  0.52576679  0.32955667    -0.87590
H2251       H  0.96004529  0.60527028  0.16182019     0.36500
H2252       H  0.98076374  0.58835469  0.13850611     0.41600
H2253       H  0.95009369  0.54003641  0.35648257     0.41220
H2254       H  0.96951926  0.52104557  0.33644834     0.36110
C2255       C  0.87496015  0.91008089  0.26014631    -0.25620
C2256       C  0.90426752  0.90963132  0.25653895    -0.13700
C2257       C  0.93286138  0.93948471  0.26439202     0.36930
C2258       C  0.93197587  0.96846671  0.26081877    -0.25070
C2259       C  0.90255819  0.96910198  0.25902557    -0.14310
C2260       C  0.87334987  0.93848685  0.26189037     0.38020
N2261       N  0.84137795  0.93443592  0.26778088    -0.88560
H2262       H  0.85232052  0.88765042  0.26206256     0.19130
H2263       H  0.95485098  0.99054489  0.26054429     0.19120
N2264       N  0.96224030  0.94062539  0.27907418    -0.87590
H2265       H  0.82606255  0.91854190  0.24261685     0.36500
H2266       H  0.84042981  0.95538175  0.26324669     0.41600
H2267       H  0.95765535  0.92899943  0.31117521     0.41220
H2268       H  0.98061384  0.96430458  0.28449014     0.36110
C2269       C  0.98532976  0.88646086  0.46061766    -0.25620
C2270       C  0.99781737  0.88292980  0.00340262    -0.13700
C2271       C  0.98127026  0.88444304  0.04404370     0.36930
C2272       C  0.95260723  0.88611189  0.04010700    -0.25070
C2273       C  0.93692753  0.88305875  0.99727829    -0.14310
C2274       C  0.95536344  0.88572043  0.45678608     0.38020
N2275       N  0.94387810  0.88774136  0.41149802    -0.88560
H2276       H  0.99869872  0.88889104  0.42904168     0.19130
H2277       H  0.94222838  0.88918170  0.07175456     0.19120
N2278       N  0.99254887  0.88497901  0.09020872    -0.87590
H2279       H  0.95949399  0.88826206  0.38549283     0.36500
H2280       H  0.94390314  0.90947855  0.40922312     0.41600
H2281       H  0.01681878  0.90267230  0.09335157     0.41220
H2282       H  0.98923889  0.86240180  0.09844977     0.36110
C2283       C  0.56839896  0.61579215  0.03609606    -0.25620
C2284       C  0.55987000  0.62901878  0.49832165    -0.13700
C2285       C  0.58484307  0.64508633  0.46394134     0.36930
C2286       C  0.61358669  0.64387568  0.46581316    -0.25070
C2287       C  0.62043870  0.62790637  0.50115956    -0.14310
C2288       C  0.59702575  0.61369856  0.03699969     0.38020
N2289       N  0.60232467  0.59724803  0.07465607    -0.88560
H2290       H  0.55249512  0.60707808  0.06600995     0.19130
H2291       H  0.63134936  0.65729811  0.43934666     0.19120
N2292       N  0.58448713  0.66589245  0.42866717    -0.87590
H2293       H  0.58075313  0.58323600  0.09290864     0.36500
H2294       H  0.61789696  0.61470763  0.09792295     0.41600
H2295       H  0.58152934  0.68416989  0.44334206     0.41220
H2296       H  0.56749828  0.65274787  0.40333956     0.36110
C2297       C  0.62708362  0.53825951  0.98670292    -0.25620
C2298       C  0.65350045  0.53643412  0.00561261    -0.13700
C2299       C  0.68111647  0.56593662  0.51781917     0.36930
C2300       C  0.67982188  0.59449351  0.51750211    -0.25070
C2301       C  0.65159615  0.59553672  0.00535239    -0.14310
C2302       C  0.62548425  0.56685808  0.98678534     0.38020
N2303       N  0.59815148  0.56680921  0.96549357    -0.88560
H2304       H  0.60766898  0.51735290  0.97018958     0.19130
H2305       H  0.70194391  0.61652280  0.52537189     0.19120
N2306       N  0.71131169  0.56757797  0.52857479    -0.87590
H2307       H  0.58062456  0.54361444  0.95567954     0.36500
H2308       H  0.60627407  0.58020519  0.93490134     0.41600
H2309       H  0.71819279  0.57723740  0.56184810     0.41220
H2310       H  0.72888530  0.58351713  0.50540763     0.36110
C2311       C  0.56269986  0.94000745  0.01826135    -0.25620
C2312       C  0.56069915  0.91279675  0.99621470    -0.13700
C2313       C  0.59066327  0.91568297  0.48098021     0.36930
C2314       C  0.61886189  0.94594245  0.47981412    -0.25070
C2315       C  0.62064450  0.97331744  0.00086684    -0.14310
C2316       C  0.59236749  0.96831444  0.02540033     0.38020
N2317       N  0.59290282  0.98935005  0.06132803    -0.88560
H2318       H  0.54162252  0.93844408  0.03489589     0.19130
H2319       H  0.64065757  0.94733398  0.46584022     0.19120
N2320       N  0.59326489  0.88787995  0.46911245    -0.87590
H2321       H  0.58087841  0.00125099  0.04959584     0.36500
H2322       H  0.61626507  0.50597060  0.07182866     0.41600
H2323       H  0.58923593  0.87420421  0.49910642     0.41220
H2324       H  0.61661856  0.89433313  0.45777234     0.36110
C2325       C  0.99477824  0.56799234  0.01936317    -0.25620
C2326       C  0.99538720  0.59726823  0.00980301    -0.13700
C2327       C  0.96453767  0.59553488  0.50727419     0.36930
C2328       C  0.93629374  0.56555411  0.50279506    -0.25070
C2329       C  0.93652555  0.53641456  0.00700166    -0.14310
C2330       C  0.96529516  0.53897114  0.02524668     0.38020
N2331       N  0.96464146  0.51279312  0.05045674    -0.88560
H2332       H  0.51651745  0.56676554  0.02369918     0.19130
H2333       H  0.91348129  0.56490676  0.49725100     0.19120
N2334       N  0.96184453  0.62414150  0.50716641    -0.87590
H2335       H  0.98781927  0.51899387  0.06214519     0.36500
H2336       H  0.95032525  0.50878076  0.07998508     0.41600
H2337       H  0.96688225  0.63371588  0.54053750     0.41220
H2338       H  0.93796068  0.61856254  0.50093550     0.36110
C2339       C  0.93229282  0.94103370  0.48242505    -0.25620
C2340       C  0.90278295  0.91179753  0.48805339    -0.13700
C2341       C  0.87402660  0.91395659  0.98412526     0.36930
C2342       C  0.87566041  0.94386115  0.98643277    -0.25070
C2343       C  0.90525464  0.97295763  0.48939969    -0.14310
C2344       C  0.93302448  0.97071828  0.47725766     0.38020
N2345       N  0.96074052  0.99734601  0.45609017    -0.88560
H2346       H  0.95494376  0.94109960  0.47933111     0.19130
H2347       H  0.85306966  0.94403675  0.98433648     0.19120
N2348       N  0.84291207  0.88620183  0.97627571    -0.87590
H2349       H  0.97849138  0.99129479  0.44804983     0.36500
H2350       H  0.95319303  0.50225674  0.42465197     0.41600
H2351       H  0.83428677  0.88917545  0.94439330     0.41220
H2352       H  0.82688705  0.88547086  0.00176241     0.36110
C2353       C  0.90398066  0.00450600  0.49910317    -0.01790
C2354       C  0.65449451  0.50446661  0.50351189    -0.01790
C2355       C  0.65388322  0.62904551  0.50284183    -0.01790
C2356       C  0.52731685  0.63025943  0.50182828    -0.01790
C2357       C  0.52914325  0.87945710  0.50211199    -0.01790
C2358       C  0.90180571  0.87886979  0.49520408    -0.01790
O2359       O  0.51485386  0.86467693  0.83399669    -0.57120
C2360       C  0.52453870  0.85694366  0.96144523     0.75510
O2361       O  0.95307060  0.79977241  0.91736233    -0.58280
C2362       C  0.52215181  0.85650323  0.79619059     0.75480
C2363       C  0.51307759  0.76133176  0.87741277     0.77870
Cd2364     Cd  0.50537551  0.81720284  0.87973606     1.37470
O2365       O  0.53964546  0.86674246  0.92323488    -0.57120
O2366       O  0.53844018  0.78865558  0.88126560    -0.55930
C2367       C  0.93907155  0.79766093  0.87937557     0.77830
O2368       O  0.98646354  0.76103368  0.87532040    -0.58300
O2369       O  0.50300124  0.82760964  0.96276034    -0.56750
O2370       O  0.02462652  0.83137378  0.79773582    -0.56740
O2371       O  0.95462645  0.80039253  0.84276036    -0.55910
O2372       O  0.51133647  0.62757518  0.92119663    -0.57120
C2373       C  0.52161341  0.64488855  0.79194484     0.75510
O2374       O  0.95154485  0.63383451  0.83852395    -0.58280
C2375       C  0.52103032  0.64409075  0.95788812     0.75480
C2376       C  0.51264904  0.73051656  0.87589687     0.77870
Cd2377     Cd  0.50359362  0.66644761  0.87470935     1.37460
O2378       O  0.53905146  0.65281241  0.82811692    -0.57120
O2379       O  0.53765125  0.72748960  0.87304809    -0.55930
C2380       C  0.93762470  0.62108857  0.87625957     0.77830
O2381       O  0.98566783  0.70494064  0.87727876    -0.58300
O2382       O  0.49810781  0.65015747  0.79291070    -0.56750
O2383       O  0.52380502  0.67178112  0.95587999    -0.56740
O2384       O  0.95288049  0.63301565  0.91334056    -0.55910
O2385       O  0.89921967  0.86549694  0.83112429    -0.57120
C2386       C  0.88350148  0.85611534  0.95554280     0.75510
O2387       O  0.82417004  0.76077059  0.86876535    -0.58280
C2388       C  0.88588608  0.85663548  0.79199298     0.75480
C2389       C  0.90863087  0.79737363  0.87756972     0.77870
Cd2390     Cd  0.86178080  0.81656699  0.87446447     1.37460
O2391       O  0.87369720  0.86449639  0.92000988    -0.57120
O2392       O  0.89762944  0.80065875  0.83941482    -0.55930
C2393       C  0.79804167  0.76113900  0.87386209     0.77830
O2394       O  0.89467438  0.79842580  0.91419571    -0.58300
O2395       O  0.87887049  0.82779815  0.95536678    -0.56750
O2396       O  0.85942726  0.83016474  0.79141462    -0.56740
O2397       O  0.80024976  0.78844754  0.87921129    -0.55910
O2398       O  0.87577672  0.98900873  0.82922678    -0.57120
C2399       C  0.88796186  0.50896661  0.95626258     0.75510
O2400       O  0.89509711  0.57668675  0.83904654    -0.58280
C2401       C  0.88540783  0.50710620  0.79368216     0.75480
C2402       C  0.79903202  0.51547002  0.87547905     0.77870
Cd2403     Cd  0.86335666  0.52486675  0.87517710     1.37470
O2404       O  0.90196474  0.01479709  0.91735460    -0.57120
O2405       O  0.80211802  0.99095150  0.86883248    -0.55930
C2406       C  0.90792384  0.59071804  0.87657763     0.77830
O2407       O  0.82462404  0.54183321  0.88171988    -0.58300
O2408       O  0.86073044  0.50780680  0.95711501    -0.56750
O2409       O  0.88141563  0.53126626  0.79459361    -0.56740
O2410       O  0.89687224  0.57527857  0.91390503    -0.55910
O2411       O  0.66370458  0.01115540  0.92043258    -0.57120
C2412       C  0.67406119  0.50586901  0.79429341     0.75510
O2413       O  0.73264634  0.57670154  0.84226817    -0.58280
C2414       C  0.67382500  0.50797960  0.95950457     0.75480
C2415       C  0.76822388  0.51536436  0.87587374     0.77870
Cd2416     Cd  0.71296821  0.52418862  0.87675051     1.37460
O2417       O  0.66470522  0.98851364  0.83059255    -0.57120
O2418       O  0.74058969  0.99063106  0.87041127    -0.55930
C2419       C  0.73208568  0.58974264  0.87999686     0.77830
O2420       O  0.76890693  0.54171906  0.88171793    -0.58300
O2421       O  0.70245440  0.52970968  0.79526887    -0.56750
O2422       O  0.70094643  0.50890029  0.95955136    -0.56740
O2423       O  0.72663849  0.57352436  0.91666713    -0.55910
O2424       O  0.66441872  0.63110141  0.92029903    -0.57120
C2425       C  0.67336823  0.64289853  0.79451419     0.75510
O2426       O  0.76918769  0.70488839  0.87518990    -0.58280
C2427       C  0.67401279  0.64442912  0.95935278     0.75480
C2428       C  0.73245694  0.61998261  0.88033225     0.77870
Cd2429     Cd  0.71304505  0.66634119  0.87645839     1.37470
O2430       O  0.66414904  0.65281947  0.82904604    -0.57120
O2431       O  0.72693464  0.63066764  0.91720247    -0.55930
C2432       C  0.76765090  0.73036501  0.87429076     0.77830
O2433       O  0.73370531  0.63409393  0.84282139    -0.58300
O2434       O  0.70179767  0.64725310  0.79673165    -0.56750
O2435       O  0.70125989  0.67006769  0.95973020    -0.56740
O2436       O  0.73953235  0.72725402  0.87381725    -0.55910
C2437       C  0.90230586  0.50149860  0.75271386    -0.01790
C2438       C  0.65220530  0.49995628  0.75245676    -0.01790
C2439       C  0.65196943  0.62559089  0.75272769    -0.01790
C2440       C  0.52728911  0.62876697  0.74999836    -0.01790
C2441       C  0.52611592  0.87551492  0.75163993    -0.01790
C2442       C  0.90231779  0.87633394  0.74836175    -0.01790
O2443       O  0.89026531  0.48823026  0.67129214    -0.57120
C2444       C  0.88287966  0.99964282  0.54209017     0.75510
O2445       O  0.82037189  0.92677607  0.59030739    -0.58280
C2446       C  0.88310059  0.99744874  0.70828488     0.75480
C2447       C  0.78714178  0.98770420  0.62841221     0.77870
Cd2448     Cd  0.84409923  0.98099230  0.62513248     1.37470
O2449       O  0.89329971  0.51676796  0.57839101    -0.57120
O2450       O  0.81421013  0.51226683  0.61882121    -0.55930
C2451       C  0.82685446  0.91567092  0.62587849     0.77830
O2452       O  0.78748670  0.96212143  0.63744675    -0.58300
O2453       O  0.85365363  0.97760651  0.54365994    -0.56750
O2454       O  0.85913798  0.00221943  0.70584427    -0.56740
O2455       O  0.83707103  0.93349871  0.66096250    -0.55910
O2456       O  0.65050001  0.48264174  0.67309518    -0.57120
C2457       C  0.67098121  0.99906907  0.54528909     0.75510
O2458       O  0.73038688  0.96112677  0.63662724    -0.58280
C2459       C  0.66728530  0.49445434  0.70919077     0.75480
C2460       C  0.64578404  0.91282425  0.62594353     0.77870
Cd2461     Cd  0.69146175  0.97872368  0.62664234     1.37460
O2462       O  0.67728256  0.51492962  0.58267595    -0.57120
O2463       O  0.65782562  0.92771326  0.66319197    -0.55930
C2464       C  0.75598717  0.98720553  0.62830643     0.77830
O2465       O  0.65837118  0.92719329  0.58836770    -0.58300
O2466       O  0.67756090  0.97655816  0.54496682    -0.56750
O2467       O  0.69661329  0.00103266  0.70659558    -0.56740
O2468       O  0.75271966  0.51136013  0.61929789    -0.55910
O2469       O  0.65378870  0.63854118  0.67083737    -0.57120
C2470       C  0.67125741  0.64996994  0.54489906     0.75510
O2471       O  0.66029798  0.70779849  0.59405281    -0.58280
C2472       C  0.66807878  0.64591186  0.70949768     0.75480
C2473       C  0.75659509  0.74214456  0.62801304     0.77870
Cd2474     Cd  0.69237992  0.68733688  0.62876082     1.37470
O2475       O  0.68009072  0.64014247  0.57990441    -0.57120
O2476       O  0.75362235  0.71471706  0.62052655    -0.55930
C2477       C  0.64653846  0.70796142  0.63142035     0.77830
O2478       O  0.73100012  0.74289109  0.63672053    -0.58300
O2479       O  0.67593141  0.67826290  0.54748367    -0.56750
O2480       O  0.69543761  0.67147395  0.71000113    -0.56740
O2481       O  0.65706794  0.70270879  0.66866142    -0.55910
O2482       O  0.51554914  0.64214779  0.57983944    -0.57120
C2483       C  0.53272611  0.64916722  0.70678128     0.75510
O2484       O  0.60331160  0.70788868  0.59231042    -0.58280
C2485       C  0.53224245  0.65205161  0.54294146     0.75480
C2486       C  0.54230776  0.74499881  0.62490657     0.77870
Cd2487     Cd  0.55079011  0.69003830  0.62586324     1.37460
O2488       O  0.54447065  0.64414287  0.67044295    -0.57120
O2489       O  0.51718730  0.71739961  0.62363457    -0.55930
C2490       C  0.61664062  0.70879830  0.63050337     0.77830
O2491       O  0.56928031  0.74603638  0.62721576    -0.58300
O2492       O  0.52706554  0.67239661  0.70491948    -0.56750
O2493       O  0.55513806  0.68078357  0.54328099    -0.56740
O2494       O  0.60082758  0.70575071  0.66722005    -0.55910
O2495       O  0.88833465  0.84564284  0.56722763    -0.57120
C2496       C  0.88155613  0.85964419  0.70573146     0.75510
O2497       O  0.81926285  0.86759061  0.59041915    -0.58280
C2498       C  0.88186569  0.86210958  0.53913189     0.75480
C2499       C  0.78728461  0.77261566  0.62612464     0.77870
Cd2500     Cd  0.84311659  0.83648914  0.62281405     1.37470
O2501       O  0.89257059  0.85297707  0.66973484    -0.57120
O2502       O  0.81483081  0.77523128  0.61941296    -0.55930
C2503       C  0.82703266  0.88561419  0.62568610     0.77830
O2504       O  0.78669109  0.79838272  0.63085333    -0.58300
O2505       O  0.85202862  0.85183262  0.70412741    -0.56750
O2506       O  0.85649216  0.86296799  0.54868876    -0.56740
O2507       O  0.83874253  0.87854128  0.65992629    -0.55910
O2508       O  0.51621706  0.85504242  0.67181973    -0.57120
C2509       C  0.53364960  0.86391587  0.54563822     0.75510
O2510       O  0.60133487  0.86936692  0.58908557    -0.58280
C2511       C  0.53148268  0.85927863  0.70951784     0.75480
C2512       C  0.54184825  0.77522567  0.62387526     0.77870
Cd2513     Cd  0.54902734  0.83818335  0.62649285     1.37460
O2514       O  0.51463972  0.83492607  0.55755637    -0.57120
O2515       O  0.51654467  0.77747671  0.62864456    -0.55930
C2516       C  0.61540826  0.88288871  0.62644138     0.77830
O2517       O  0.56823973  0.80105220  0.61888592    -0.58300
O2518       O  0.55769137  0.87957550  0.57180661    -0.56750
O2519       O  0.55202708  0.84991806  0.70962000    -0.56740
O2520       O  0.59990143  0.87226854  0.66399270    -0.55910
C2521       C  0.93525393  0.84804217  0.75267408    -0.25620
C2522       C  0.93478613  0.87631587  0.74084738    -0.13700
C2523       C  0.96152019  0.89840752  0.71284437     0.36930
C2524       C  0.99105542  0.89809626  0.71558110    -0.25070
C2525       C  0.99352599  0.87482791  0.74256059    -0.14310
C2526       C  0.96366477  0.84634470  0.75060184     0.38020
N2527       N  0.96189355  0.81555165  0.75291878    -0.88560
H2528       H  0.91290149  0.82646348  0.76108631     0.19130
H2529       H  0.01202001  0.91614962  0.69693118     0.19120
N2530       N  0.95987094  0.92107443  0.68189584    -0.87590
H2531       H  0.96874923  0.81105596  0.72060389     0.36500
H2532       H  0.93795479  0.79720961  0.75772461     0.41600
H2533       H  0.93619202  0.91670099  0.67893639     0.41220
H2534       H  0.96597722  0.91696537  0.64875645     0.36110
C2535       C  0.61822732  0.65262118  0.76454740    -0.25620
C2536       C  0.61826329  0.62371895  0.75616908    -0.13700
C2537       C  0.58795255  0.59637462  0.74480649     0.36930
C2538       C  0.55928568  0.59829840  0.74646378    -0.25070
C2539       C  0.55921792  0.62721900  0.75585499    -0.14310
C2540       C  0.59015661  0.65514234  0.76387010     0.38020
N2541       N  0.59521679  0.68717712  0.76914548    -0.88560
H2542       H  0.64109745  0.67456815  0.76941735     0.19130
H2543       H  0.53709641  0.57711208  0.73653464     0.19120
N2544       N  0.58609828  0.56734939  0.72777845    -0.87590
H2545       H  0.60270507  0.69454054  0.80320606     0.36500
H2546       H  0.57487373  0.68929004  0.76310520     0.41600
H2547       H  0.59675814  0.57239798  0.69484055     0.41220
H2548       H  0.56207508  0.54920896  0.72324478     0.36110
C2549       C  0.63791797  0.54085260  0.78668013    -0.25620
C2550       C  0.64974747  0.53147847  0.74805812    -0.13700
C2551       C  0.66247415  0.55399524  0.71050892     0.36930
C2552       C  0.66248762  0.58326318  0.71249508    -0.25070
C2553       C  0.65020458  0.59219155  0.75068317    -0.14310
C2554       C  0.63771689  0.57016116  0.78818098     0.38020
N2555       N  0.62480723  0.57751633  0.82829327    -0.88560
H2556       H  0.62892340  0.52517092  0.81666971     0.19130
H2557       H  0.67311628  0.59921900  0.68324996     0.19120
N2558       N  0.67669964  0.54862186  0.67017542    -0.87590
H2559       H  0.60073792  0.55934144  0.83251412     0.36500
H2560       H  0.63785507  0.57719320  0.85722542     0.41600
H2561       H  0.70079307  0.56708743  0.66766573     0.41220
H2562       H  0.66425737  0.54979982  0.64105793     0.36110
C2563       C  0.58922167  0.96788282  0.76015608    -0.25620
C2564       C  0.61909218  0.96804818  0.75955418    -0.13700
C2565       C  0.61715573  0.93733734  0.76443546     0.36930
C2566       C  0.58692843  0.90918920  0.76391033    -0.25070
C2567       C  0.55736489  0.90898847  0.75913241    -0.14310
C2568       C  0.55904588  0.93922262  0.76460670     0.38020
N2569       N  0.53119115  0.94122264  0.77905871    -0.88560
H2570       H  0.58873077  0.99006284  0.75832672     0.19130
H2571       H  0.58682088  0.88668659  0.76738080     0.19120
N2572       N  0.64477304  0.93288881  0.77070059    -0.87590
H2573       H  0.53687224  0.96512468  0.78303561     0.36500
H2574       H  0.52425819  0.93047615  0.81176376     0.41600
H2575       H  0.66693686  0.95359845  0.76620677     0.41220
H2576       H  0.64392452  0.91678891  0.74566363     0.36110
C2577       C  0.94607053  0.55274440  0.70972759    -0.25560
C2578       C  0.93672235  0.53261541  0.74930622    -0.13700
C2579       C  0.95834263  0.54410039  0.78756765     0.36930
C2580       C  0.98727532  0.57404876  0.78543565    -0.25070
C2581       C  0.99597462  0.59463965  0.74641359    -0.14310
C2582       C  0.97433657  0.58301388  0.70794100     0.38020
N2583       N  0.97975012  0.60158809  0.66664301    -0.88560
H2584       H  0.93091454  0.54612520  0.67934279     0.19130
H2585       H  0.50291530  0.58179935  0.81555402     0.19120
N2586       N  0.95070639  0.52576666  0.82955643    -0.87590
H2587       H  0.96004420  0.60527065  0.66182133     0.36500
H2588       H  0.98076270  0.58835542  0.63850624     0.41600
H2589       H  0.95009349  0.54003622  0.85648244     0.41220
H2590       H  0.96951910  0.52104548  0.83644795     0.36110
C2591       C  0.87496025  0.91008102  0.76014716    -0.25620
C2592       C  0.90426763  0.90963154  0.75653909    -0.13700
C2593       C  0.93286153  0.93948496  0.76439166     0.36930
C2594       C  0.93197589  0.96846689  0.76081845    -0.25070
C2595       C  0.90255814  0.96910204  0.75902574    -0.14310
C2596       C  0.87334989  0.93848691  0.76189111     0.38020
N2597       N  0.84137800  0.93443596  0.76778230    -0.88560
H2598       H  0.85232068  0.88765051  0.76206391     0.19130
H2599       H  0.95485097  0.99054510  0.76054351     0.19120
N2600       N  0.96224059  0.94062576  0.77907331    -0.87590
H2601       H  0.82606212  0.91854099  0.74261952     0.36500
H2602       H  0.84042964  0.95538154  0.76324636     0.41600
H2603       H  0.95765593  0.92899990  0.81117439     0.41220
H2604       H  0.98061413  0.96430498  0.78448899     0.36110
C2605       C  0.98532949  0.88646086  0.96061745    -0.25620
C2606       C  0.99781777  0.88292991  0.50340276    -0.13700
C2607       C  0.98127082  0.88444332  0.54404392     0.36930
C2608       C  0.95260781  0.88611222  0.54010737    -0.25070
C2609       C  0.93692793  0.88305892  0.49727878    -0.14310
C2610       C  0.95536314  0.88572034  0.95678570     0.38020
N2611       N  0.94387784  0.88774120  0.91149758    -0.88560
H2612       H  0.99869856  0.88889113  0.92904155     0.19130
H2613       H  0.94222918  0.88918231  0.57175494     0.19120
N2614       N  0.99254958  0.88497942  0.59020887    -0.87590
H2615       H  0.95949382  0.88826196  0.88549247     0.36500
H2616       H  0.94390278  0.90947834  0.90922260     0.41600
H2617       H  0.01681952  0.90267267  0.59335153     0.41220
H2618       H  0.98923956  0.86240221  0.59845000     0.36110
C2619       C  0.56839948  0.61579233  0.53609605    -0.25620
C2620       C  0.55986936  0.62901831  0.99832140    -0.13700
C2621       C  0.58484225  0.64508541  0.96394071     0.36930
C2622       C  0.61358597  0.64387496  0.96581280    -0.25070
C2623       C  0.62043820  0.62790611  0.00115964    -0.14310
C2624       C  0.59702618  0.61369861  0.53699949     0.38020
N2625       N  0.60232489  0.59724763  0.57465546    -0.88560
H2626       H  0.55249557  0.60707810  0.56600986     0.19130
H2627       H  0.63134849  0.65729710  0.93934599     0.19120
N2628       N  0.58448591  0.66589066  0.92866546    -0.87590
H2629       H  0.58075342  0.58323593  0.59290835     0.36500
H2630       H  0.61789764  0.61470697  0.59792228     0.41600
H2631       H  0.58152833  0.68416849  0.94333936     0.41220
H2632       H  0.56749677  0.65274540  0.90333854     0.36110
C2633       C  0.62708407  0.53825976  0.48670241    -0.25620
C2634       C  0.65350087  0.53643435  0.50561216    -0.13700
C2635       C  0.68111604  0.56593642  0.01781957     0.36930
C2636       C  0.67982143  0.59449331  0.01750246    -0.25070
C2637       C  0.65159661  0.59553694  0.50535204    -0.14310
C2638       C  0.62548473  0.56685835  0.48678487     0.38020
N2639       N  0.59815199  0.56680953  0.46549308    -0.88560
H2640       H  0.60766943  0.51735317  0.47018904     0.19130
H2641       H  0.70194346  0.61652261  0.02537216     0.19120
N2642       N  0.71131128  0.56757781  0.02857515    -0.87590
H2643       H  0.58062510  0.54361479  0.45567890     0.36500
H2644       H  0.60627463  0.58020562  0.43490093     0.41600
H2645       H  0.71819240  0.57723727  0.06184844     0.41220
H2646       H  0.72888486  0.58351694  0.00540794     0.36110
C2647       C  0.56270023  0.94000766  0.51826110    -0.25620
C2648       C  0.56069956  0.91279692  0.49621466    -0.13700
C2649       C  0.59066286  0.91568278  0.98098028     0.36930
C2650       C  0.61886151  0.94594225  0.97981435    -0.25070
C2651       C  0.62064485  0.97331767  0.50086648    -0.14310
C2652       C  0.59236784  0.96831469  0.52539995     0.38020
N2653       N  0.59290315  0.98935038  0.56132752    -0.88560
H2654       H  0.54162289  0.93844432  0.53489560     0.19130
H2655       H  0.64065720  0.94733378  0.96584045     0.19120
N2656       N  0.59326445  0.88787976  0.96911242    -0.87590
H2657       H  0.58087874  0.00125130  0.54959521     0.36500
H2658       H  0.61626540  0.50597095  0.57182816     0.41600
H2659       H  0.58923541  0.87420395  0.99910632     0.41220
H2660       H  0.61661813  0.89433293  0.95777237     0.36110
C2661       C  0.99477888  0.56799267  0.51936321    -0.25620
C2662       C  0.99538781  0.59726857  0.50980318    -0.13700
C2663       C  0.96453707  0.59553455  0.00727379     0.36930
C2664       C  0.93629318  0.56555379  0.00279432    -0.25070
C2665       C  0.93652613  0.53641489  0.50700239    -0.14310
C2666       C  0.96529582  0.53897150  0.52524705     0.38020
N2667       N  0.96464226  0.51279353  0.55045711    -0.88560
H2668       H  0.51651809  0.56676581  0.52369882     0.19130
H2669       H  0.91348075  0.56490646  0.99725012     0.19120
N2670       N  0.96184393  0.62414116  0.00716615    -0.87590
H2671       H  0.98782013  0.51899431  0.56214529     0.36500
H2672       H  0.95032621  0.50878125  0.57998561     0.41600
H2673       H  0.96688165  0.63371549  0.04053727     0.41220
H2674       H  0.93796007  0.61856221  0.00093527     0.36110
C2675       C  0.93229227  0.94103342  0.98242435    -0.25620
C2676       C  0.90278244  0.91179723  0.98805280    -0.13700
C2677       C  0.87402715  0.91395696  0.48412563     0.36930
C2678       C  0.87566100  0.94386152  0.48643329    -0.25070
C2679       C  0.90525403  0.97295730  0.98939906    -0.14310
C2680       C  0.93302389  0.97071798  0.97725702     0.38020
N2681       N  0.96073993  0.99734576  0.95608962    -0.88560
H2682       H  0.95494322  0.94109936  0.97933035     0.19130
H2683       H  0.85307029  0.94403717  0.48433693     0.19120
N2684       N  0.84291267  0.88620230  0.47627540    -0.87590
H2685       H  0.97849081  0.99129458  0.94804926     0.36500
H2686       H  0.95319245  0.50225653  0.92465143     0.41600
H2687       H  0.83428775  0.88917614  0.44439279     0.41220
H2688       H  0.82688738  0.88547128  0.50176168     0.36110
loop_ 
_geom_bond_atom_site_label_1 
_geom_bond_atom_site_label_2 
_geom_bond_distance 
_geom_bond_site_symmetry_2 
_ccdc_geom_bond_type 
C1           C92   1.536   1_556  S
C1         C1055   1.523       .  S
C1          C985   1.562   1_556  S
C1          C663   1.570       .  S
C2          C282   1.559       .  S
C2          C398   1.525   1_554  S
C2          C777   1.529   1_545  S
C2          C971   1.563   1_545  S
C3          C118   1.531       .  S
C3          C285   1.558       .  S
C3          C411   1.525   1_554  S
C3          C607   1.565       .  S
C4          C133   1.521       .  S
C4          C359   1.527   1_554  S
C4          C604   1.582   1_554  S
C4         C1654   1.573   1_455  S
C5          C157   1.528       .  S
C5          C296   1.566   1_554  S
C5          C344   1.535   1_554  S
C5         C1598   1.580   1_455  S
C6          C146   1.545   1_556  S
C6          C257   1.582       .  S
C6          C370   1.523       .  S
C6          C660   1.570       .  S
O7           C10   1.264       .  A
O7          Cd12   2.470       .  S
C8          C341   1.535       .  S
C8           O17   1.264       .  A
C8           O13   1.270       .  A
O9           C15   1.261       .  A
O9        Cd1356   2.446       .  S
C10          C89   1.531       .  S
C10        O1362   1.269       .  A
C11          O14   1.271       .  A
C11        O1360   1.260   1_455  A
C11          C24   1.469       .  S
Cd12         O17   2.460       .  S
Cd12         O13   2.458       .  S
Cd12         O14   2.547       .  S
Cd12       O1353   2.446   1_455  S
Cd12       O1363   2.386   1_455  S
Cd12       O1362   2.502       .  S
Cd12       O1360   2.383   1_455  S
C15          O19   1.257       .  A
C15          C37   1.442       .  S
O16        C1355   1.260       .  A
O16       Cd1356   2.383       .  S
O18        C1354   1.269       .  A
O18       Cd1356   2.502       .  S
O19       Cd1356   2.386       .  S
O20          C23   1.265       .  A
O20         Cd25   2.468       .  S
C21          C88   1.530       .  S
C21          O30   1.263   1_455  A
C21          O26   1.270       .  A
O22          C28   1.261       .  A
O22       Cd1369   2.415       .  S
C23         C340   1.527       .  S
C23          O31   1.269       .  A
C24          O27   1.270       .  A
C24        O1373   1.261   1_455  A
Cd25         O31   2.497       .  S
Cd25         O30   2.459   1_455  S
Cd25         O26   2.483       .  S
Cd25         O27   2.547       .  S
Cd25       O1366   2.415   1_455  S
Cd25       O1376   2.403   1_455  S
Cd25       O1373   2.388   1_455  S
C28          O32   1.261       .  A
C28          C54   1.440       .  S
O29        C1368   1.261       .  A
O29       Cd1369   2.388       .  S
O32       Cd1369   2.403       .  S
O33          C36   1.262       .  A
O33         Cd38   2.465       .  S
C34         C342   1.523       .  S
C34          O43   1.263       .  A
C34          O39   1.272       .  A
O35          C41   1.260       .  A
O35         Cd38   2.374       .  S
C36          C90   1.532       .  S
C36          O44   1.268       .  A
C37          O42   1.260       .  A
C37          O40   1.262       .  A
Cd38         O45   2.545       .  S
Cd38         O44   2.499       .  S
Cd38         O43   2.443       .  S
Cd38         O39   2.459       .  S
Cd38         O42   2.424       .  S
Cd38         O40   2.407       .  S
C41          O45   1.271       .  A
C41          C80   1.466       .  S
O46         C721   1.271       .  A
O46        Cd723   2.464       .  S
C47        C1009   1.523       .  S
C47          O56   1.269       .  A
C47         O724   1.262       .  A
O48          C54   1.262       .  A
O48         Cd51   2.410       .  S
C49          C85   1.525       .  S
C49          O57   1.264       .  A
C49         O718   1.271   1_545  A
C50          O55   1.259       .  A
C50         O725   1.270   1_545  A
C50          C63   1.463       .  S
Cd51         O58   2.412       .  S
Cd51         O57   2.441       .  S
Cd51         O56   2.483       .  S
Cd51         O55   2.362       .  S
Cd51        O718   2.464   1_545  S
Cd51        O724   2.444       .  S
Cd51        O725   2.541   1_545  S
O52         C719   1.262       .  A
O52        Cd723   2.444       .  S
O53         C722   1.270       .  A
O53        Cd723   2.541       .  S
C54          O58   1.262       .  A
O59         C734   1.265       .  A
O59        Cd736   2.449       .  S
C60          C86   1.526   1_545  S
C60          O69   1.264       .  A
C60         O737   1.271   1_545  A
O61          C67   1.262       .  A
O61         Cd64   2.421       .  S
C62         C338   1.525       .  S
C62          O70   1.269       .  A
C62         O731   1.265       .  A
C63          O68   1.260       .  A
C63         O738   1.270   1_545  A
Cd64         O71   2.414       .  S
Cd64         O70   2.478       .  S
Cd64         O69   2.445       .  S
Cd64         O68   2.363       .  S
Cd64        O731   2.449       .  S
Cd64        O737   2.467   1_545  S
Cd64        O738   2.540   1_545  S
O65         C732   1.271       .  A
O65        Cd736   2.467       .  S
O66         C735   1.270       .  A
O66        Cd736   2.540       .  S
C67          O71   1.260       .  A
C67          C76   1.442       .  S
O72          C75   1.264       .  A
O72         Cd77   2.430       .  S
C73          C87   1.531       .  S
C73          O82   1.263       .  A
C73          O78   1.271       .  A
O74          C80   1.260       .  A
O74         Cd77   2.376       .  S
C75         C339   1.525       .  S
C75          O83   1.268       .  A
C76          O81   1.261       .  A
C76          O79   1.263       .  A
Cd77         O84   2.544       .  S
Cd77         O83   2.491       .  S
Cd77         O82   2.436       .  S
Cd77         O78   2.493       .  S
Cd77         O81   2.410       .  S
Cd77         O79   2.423       .  S
C80          O84   1.270       .  A
C85         C226   1.578       .  S
C85         C766   1.531   1_545  S
C85         C915   1.570   1_545  S
C86         C107   1.525       .  S
C86         C198   1.578   1_565  S
C86         C884   1.571       .  S
C87         C120   1.531       .  S
C87         C184   1.563       .  S
C87         C201   1.563       .  S
C88         C131   1.524       .  S
C88         C187   1.566       .  S
C88        C1573   1.577   1_455  S
C89         C159   1.531       .  S
C89         C215   1.570       .  S
C89        C1517   1.557   1_455  S
C90         C144   1.533       .  S
C90         C170   1.559       .  S
C90         C240   1.571       .  S
O91         C766   1.264       .  A
O91        Cd768   2.443       .  S
C92         O101   1.262       .  A
C92         O769   1.271       .  A
O93          C99   1.263       .  A
O93         Cd96   2.478       .  S
C94         C757   1.531       .  S
C94         O102   1.271       .  A
C94         O763   1.264       .  A
C95         O100   1.262       .  A
C95         O770   1.270       .  A
C95         C112   1.470       .  S
Cd96        O103   2.368       .  S
Cd96        O102   2.501       .  S
Cd96        O101   2.413       .  S
Cd96        O100   2.402       .  S
Cd96        O763   2.443       .  S
Cd96        O769   2.496       .  S
Cd96        O770   2.534       .  S
O97         C764   1.271   1_545  A
O97        Cd768   2.496   1_545  S
O98         C767   1.270   1_545  A
O98        Cd768   2.534   1_545  S
C99         O103   1.258       .  A
C99         C151   1.446       .  S
O104        C107   1.264       .  A
O104       Cd781   2.445       .  S
C105        C674   1.529       .  S
C105        O114   1.265       .  A
C105        O782   1.268       .  A
O106        C112   1.261       .  A
O106       Cd109   2.403       .  S
C107        O787   1.270   1_565  A
C108        O113   1.263       .  A
C108        O111   1.261       .  A
C108        C164   1.445       .  S
Cd109       O115   2.503       .  S
Cd109       O114   2.436       .  S
Cd109       O113   2.440       .  S
Cd109       O111   2.400       .  S
Cd109       O776   2.445       .  S
Cd109       O788   2.540       .  S
Cd109       O782   2.499       .  S
O110        C777   1.268   1_545  A
O110       Cd781   2.499   1_545  S
C112        O788   1.270       .  A
O115        C779   1.270       .  A
O116        C784   1.270   1_545  A
O116       Cd781   2.540   1_545  S
O117        C120   1.263       .  A
O117       Cd122   2.457       .  S
C118        O127   1.264       .  A
C118        O123   1.271       .  A
O119        C125   1.262       .  A
O119       Cd122   2.406       .  S
C120        O128   1.270       .  A
C121        O126   1.260       .  A
C121        O124   1.270       .  A
C121        C147   1.466       .  S
Cd122       O129   2.431       .  S
Cd122       O128   2.490       .  S
Cd122       O127   2.443       .  S
Cd122       O123   2.479       .  S
Cd122       O126   2.381       .  S
Cd122       O124   2.542       .  S
C125        O129   1.263       .  A
C125        C138   1.443       .  S
O130        C133   1.269       .  A
O130       Cd135   2.457       .  S
C131        O140   1.271       .  A
C131        O136   1.265       .  A
O132        C138   1.262       .  A
O132       Cd135   2.403       .  S
C133        O141   1.263       .  A
C134        O139   1.261       .  A
C134        O137   1.269       .  A
C134        C160   1.461       .  S
Cd135       O142   2.426       .  S
Cd135       O141   2.450       .  S
Cd135       O140   2.495       .  S
Cd135       O136   2.435       .  S
Cd135       O139   2.376       .  S
Cd135       O137   2.523       .  S
C138        O142   1.263       .  A
O143        C146   1.272       .  A
O143       Cd148   2.536       .  S
C144        O153   1.262       .  A
C144        O149   1.272       .  A
O145        C151   1.266       .  A
O145       Cd148   2.464       .  S
C146        O154   1.258       .  A
C147        O152   1.258       .  A
C147        O150   1.267       .  A
Cd148       O155   2.382       .  S
Cd148       O154   2.403       .  S
Cd148       O153   2.432       .  S
Cd148       O149   2.481       .  S
Cd148       O152   2.392       .  S
Cd148       O150   2.555       .  S
C151        O155   1.261       .  A
O156        C159   1.268       .  A
O156       Cd161   2.458       .  S
C157        O166   1.262       .  A
C157        O162   1.272       .  A
O158        C164   1.266       .  A
O158       Cd161   2.425       .  S
C159        O167   1.262       .  A
C160        O165   1.259       .  A
C160        O163   1.268       .  A
Cd161       O168   2.405       .  S
Cd161       O167   2.451       .  S
Cd161       O166   2.404       .  S
Cd161       O162   2.532       .  S
Cd161       O165   2.381       .  S
Cd161       O163   2.530       .  S
C164        O168   1.264       .  A
C169        C170   1.409       .  A
C169        C174   1.395       .  A
C169        H176   1.080       .  S
C170        C171   1.431       .  A
C171        C172   1.415       .  A
C171        N178   1.438       .  S
C172        C173   1.412       .  A
C172        H177   1.083       .  S
C173       C1433   1.557       .  S
C173        C174   1.417       .  A
C174        N175   1.439       .  S
N175        H179   1.044       .  S
N175        H180   1.046       .  S
N178        H181   1.042       .  S
N178        H182   1.045       .  S
C183        C184   1.408       .  A
C183        C188   1.399       .  A
C183        H190   1.084       .  S
C184        C185   1.425       .  A
C185        C186   1.412       .  A
C185        N192   1.437       .  S
C186        C187   1.415       .  A
C186        H191   1.079       .  S
C187        C188   1.434       .  A
C188        N189   1.441       .  S
N189        H193   1.046       .  S
N189        H194   1.037       .  S
N192        H195   1.046       .  S
N192        H196   1.045       .  S
C197        C198   1.417       .  A
C197        C202   1.411       .  A
C197        H204   1.084       .  S
C198        C199   1.432       .  A
C199        C200   1.405       .  A
C199        N206   1.431       .  S
C200        C201   1.408       .  A
C200        H205   1.080       .  S
C201        C202   1.418       .  A
C202        N203   1.432       .  S
N203        H207   1.046       .  S
N203        H208   1.046       .  S
N206        H209   1.046       .  S
N206        H210   1.046       .  S
C211        C212   1.417       .  A
C211        C216   1.416       .  A
C211        H218   1.077       .  S
C212        C758   1.571       .  S
C212        C213   1.436       .  A
C213        C214   1.401       .  A
C213        N220   1.443       .  S
C214        C215   1.408       .  A
C214        H219   1.081       .  S
C215        C216   1.421       .  A
C216        N217   1.436       .  S
N217        H221   1.046       .  S
N217        H222   1.046       .  S
N220        H223   1.036       .  S
N220        H224   1.044       .  S
C225        C226   1.415       .  A
C225        C230   1.407       .  A
C225        H232   1.079       .  S
C226        C227   1.422       .  A
C227        C228   1.413       .  A
C227        N234   1.432       .  S
C228        C229   1.416       .  A
C228       H1577   1.084       .  S
C229       C1432   1.577       .  S
C229        C230   1.427       .  A
C230        N231   1.431       .  S
N231        H235   1.046       .  S
N231        H236   1.046       .  S
H233       C1572   1.084   1_455  S
N234        H237   1.045       .  S
N234        H238   1.046       .  S
C239        C240   1.408       .  A
C239        C244   1.403       .  A
C239        H246   1.081       .  S
C240        C241   1.421       .  A
C241        C242   1.415       .  A
C241        N248   1.436       .  S
C242        C243   1.416       .  A
C242        H247   1.077       .  S
C243        C757   1.570       .  S
C243        C244   1.437       .  A
C244        N245   1.444       .  S
N245        H249   1.044       .  S
N245        H250   1.036       .  S
N248        H251   1.046       .  S
N248        H252   1.046       .  S
C253        C258   1.412       .  A
C253        C590   1.417       .  A
C253        H260   1.082       .  S
C254       C1349   1.580       .  S
C254        C255   1.432       .  A
C254        C589   1.417   1_554  A
C255        C256   1.409       .  A
C255        N262   1.432       .  S
C256        C257   1.414   1_554  A
C256        H261   1.081       .  S
C257        C594   1.426       .  A
C258        C593   1.426       .  A
C258        N259   1.438       .  S
N259        H263   1.046       .  S
N259        H264   1.044       .  S
N262        H265   1.043       .  S
N262        H266   1.041       .  S
C267        C272   1.414       .  A
C267        C604   1.418   1_554  A
C267        H274   1.083       .  S
C268        C340   1.582       .  S
C268        C269   1.439       .  A
C268        C603   1.418       .  A
C269        C270   1.398       .  A
C269        N276   1.431       .  S
C270        C271   1.407       .  A
C270        H275   1.080       .  S
C271        C339   1.565       .  S
C271        C608   1.419       .  A
C272        C607   1.419       .  A
C272        N273   1.436       .  S
N273        H277   1.046       .  S
N273        H278   1.043       .  S
N276        H279   1.044       .  S
N276        H280   1.040       .  S
C281        C282   1.413   1_556  A
C281        C286   1.411       .  A
C281        H288   1.081       .  S
C282        C619   1.417       .  A
C283        C284   1.401       .  A
C283        C618   1.417       .  A
C283        N290   1.433       .  S
C284        C621   1.413       .  A
C284        H289   1.083       .  S
C285        C286   1.424   1_554  A
C285        C620   1.413       .  A
C286        N287   1.438       .  S
N287        H291   1.045       .  S
N287        H292   1.045       .  S
N290        H293   1.046       .  S
N290        H294   1.045       .  S
C295        C296   1.412   1_554  A
C295        C300   1.406       .  A
C295        H302   1.079       .  S
C296        C633   1.430       .  A
C297        C298   1.405       .  A
C297        C632   1.430       .  A
C297        N304   1.441       .  S
C298        C635   1.411       .  A
C298        H303   1.082       .  S
C299        C674   1.563       .  S
C299        C300   1.429       .  A
C299        C634   1.411   1_554  A
C300        N301   1.438       .  S
N301        H305   1.045       .  S
N301        H978   1.041       .  S
N304        H307   1.044       .  S
N304        H308   1.046       .  S
H306        N973   1.041   1_545  S
C309        C310   1.417       .  A
C309        C314   1.412       .  A
C309       H1660   1.072       .  S
C310       C1348   1.573       .  S
C310        C647   1.430       .  A
C311        C312   1.404       .  A
C311        C646   1.430       .  A
C311        N318   1.440       .  S
C312        C649   1.408       .  A
C312        H317   1.082       .  S
C313        C673   1.562   1_554  S
C313        C314   1.414       .  A
C313        C648   1.408       .  A
C314        N315   1.437       .  S
N315        H319   1.046       .  S
N315        H320   1.045       .  S
H316       C1653   1.072   1_455  S
N318        H321   1.042       .  S
N318        H322   1.046       .  S
C323        C324   1.417       .  A
C323        C328   1.415       .  A
C323        H330   1.079       .  S
C324        C342   1.570       .  S
C324        C661   1.427       .  A
C325        C326   1.399       .  A
C325        C660   1.427       .  A
C325        N332   1.435       .  S
C326        C663   1.409       .  A
C326        H331   1.080       .  S
C327        C337   1.570       .  S
C327        C328   1.420       .  A
C327        C662   1.409       .  A
C328        N329   1.437       .  S
N329        H333   1.046       .  S
N329       H1006   1.045       .  S
N332        H335   1.046       .  S
N332        H336   1.046   1_556  S
H334       N1001   1.045   1_545  S
C337        C719   1.523       .  S
C337        C428   1.536       .  S
C337       C1321   1.562       .  S
C338       C1113   1.529   1_545  S
C338        C618   1.559       .  S
C338       C1307   1.563   1_545  S
C339        C454   1.531       .  S
C339        C621   1.558       .  S
C340        C469   1.521       .  S
C340       C1990   1.573   1_455  S
C341        C493   1.528       .  S
C341       C1934   1.580   1_455  S
C341        C632   1.566       .  S
C342        C482   1.545       .  S
C342        C593   1.582       .  S
O343        C346   1.264       .  A
O343       Cd348   2.470       .  S
C344        O353   1.264       .  A
C344        O349   1.270       .  A
O345        C351   1.261       .  A
O345      Cd1692   2.446       .  S
C346        C425   1.531       .  S
C346       O1698   1.269       .  A
C347       O1696   1.260   1_455  A
C347        O350   1.271       .  A
C347        C360   1.469       .  S
Cd348      O1689   2.446   1_455  S
Cd348      O1699   2.386   1_455  S
Cd348      O1698   2.502       .  S
Cd348       O353   2.460       .  S
Cd348       O349   2.458       .  S
Cd348      O1696   2.383   1_455  S
Cd348       O350   2.547       .  S
C351        O355   1.257       .  A
C351        C373   1.442       .  S
O352       C1691   1.260       .  A
O352      Cd1692   2.383       .  S
O354       C1690   1.269       .  A
O354      Cd1692   2.502       .  S
O355      Cd1692   2.386       .  S
O356        C359   1.265       .  A
O356       Cd361   2.468       .  S
C357        C424   1.530       .  S
C357        O366   1.263   1_455  A
C357        O362   1.270       .  A
O358        C364   1.261       .  A
O358      Cd1705   2.415       .  S
C359        O367   1.269       .  A
C360       O1709   1.261   1_455  A
C360        O363   1.270       .  A
Cd361      O1702   2.415   1_455  S
Cd361      O1712   2.403   1_455  S
Cd361       O367   2.497       .  S
Cd361       O366   2.459   1_455  S
Cd361       O362   2.483       .  S
Cd361      O1709   2.388   1_455  S
Cd361       O363   2.547       .  S
C364        O368   1.261       .  A
C364        C390   1.440       .  S
O365       C1704   1.261       .  A
O365      Cd1705   2.388       .  S
O368      Cd1705   2.403       .  S
O369        C372   1.262       .  A
O369       Cd374   2.465       .  S
C370        O379   1.263       .  A
C370        O375   1.272       .  A
O371        C377   1.260       .  A
O371       Cd374   2.374       .  S
C372        C426   1.532       .  S
C372        O380   1.268       .  A
C373        O378   1.260       .  A
C373        O376   1.262       .  A
Cd374       O381   2.545       .  S
Cd374       O380   2.499       .  S
Cd374       O379   2.443       .  S
Cd374       O375   2.459       .  S
Cd374       O378   2.424       .  S
Cd374       O376   2.407       .  S
C377        O381   1.271       .  A
C377        C416   1.466       .  S
O382       C1057   1.271       .  A
O382      Cd1059   2.464       .  S
C383        C673   1.523       .  S
C383        O392   1.269       .  A
C383       O1060   1.262       .  A
O384        C390   1.262       .  A
O384       Cd387   2.410       .  S
C385        C421   1.525       .  S
C385       O1054   1.271   1_545  A
C385        O393   1.264       .  A
C386        O391   1.259       .  A
C386       O1061   1.270   1_545  A
C386        C399   1.463       .  S
Cd387      O1054   2.464   1_545  S
Cd387       O394   2.412       .  S
Cd387       O393   2.441       .  S
Cd387       O392   2.483       .  S
Cd387      O1060   2.444       .  S
Cd387       O391   2.362       .  S
Cd387      O1061   2.541   1_545  S
O388       C1055   1.262       .  A
O388      Cd1059   2.444       .  S
O389       C1058   1.270       .  A
O389      Cd1059   2.541       .  S
C390        O394   1.262       .  A
O395       C1070   1.265       .  A
O395      Cd1072   2.449       .  S
C396        C422   1.526   1_545  S
C396        O405   1.264       .  A
C396       O1073   1.271   1_545  A
O397        C403   1.262       .  A
O397       Cd400   2.421       .  S
C398       O1067   1.265       .  A
C398        O406   1.269       .  A
C399        O404   1.260       .  A
C399       O1074   1.270   1_545  A
Cd400      O1067   2.449       .  S
Cd400       O407   2.414       .  S
Cd400       O406   2.478       .  S
Cd400       O405   2.445       .  S
Cd400      O1073   2.467   1_545  S
Cd400       O404   2.363       .  S
Cd400      O1074   2.540   1_545  S
O401       C1068   1.271       .  A
O401      Cd1072   2.467       .  S
O402       C1071   1.270       .  A
O402      Cd1072   2.540       .  S
C403        O407   1.260       .  A
C403        C412   1.442       .  S
O408        C411   1.264       .  A
O408       Cd413   2.430       .  S
C409        C423   1.531       .  S
C409        O418   1.263       .  A
C409        O414   1.271       .  A
O410        C416   1.260       .  A
O410       Cd413   2.376       .  S
C411        O419   1.268       .  A
C412        O417   1.261       .  A
C412        O415   1.263       .  A
Cd413       O420   2.544       .  S
Cd413       O419   2.491       .  S
Cd413       O418   2.436       .  S
Cd413       O414   2.493       .  S
Cd413       O417   2.410       .  S
Cd413       O415   2.423       .  S
C416        O420   1.270       .  A
C421       C1102   1.531   1_545  S
C421        C562   1.578       .  S
C421       C1251   1.570   1_545  S
C422        C443   1.525       .  S
C422        C534   1.578   1_565  S
C422       C1220   1.571       .  S
C423        C456   1.531       .  S
C423        C520   1.563       .  S
C423        C537   1.563       .  S
C424        C467   1.524       .  S
C424        C523   1.566       .  S
C424       C1909   1.577   1_455  S
C425        C495   1.531       .  S
C425       C1853   1.557   1_455  S
C425        C551   1.570       .  S
C426        C480   1.533       .  S
C426        C506   1.559       .  S
C426        C576   1.571       .  S
O427       C1102   1.264       .  A
O427      Cd1104   2.443       .  S
C428        O437   1.262       .  A
C428       O1105   1.271       .  A
O429        C435   1.263       .  A
O429       Cd432   2.478       .  S
C430       C1093   1.531       .  S
C430       O1099   1.264       .  A
C430        O438   1.271       .  A
C431        O436   1.262       .  A
C431       O1106   1.270       .  A
C431        C448   1.470       .  S
Cd432      O1099   2.443       .  S
Cd432       O439   2.368       .  S
Cd432       O438   2.501       .  S
Cd432       O437   2.413       .  S
Cd432      O1105   2.496       .  S
Cd432       O436   2.402       .  S
Cd432      O1106   2.534       .  S
O433       C1100   1.271   1_545  A
O433      Cd1104   2.496   1_545  S
O434       C1103   1.270   1_545  A
O434      Cd1104   2.534   1_545  S
C435        O439   1.258       .  A
C435        C487   1.446       .  S
O440        C443   1.264       .  A
O440      Cd1117   2.445       .  S
C441       C1010   1.529       .  S
C441        O450   1.265       .  A
C441       O1118   1.268       .  A
O442        C448   1.261       .  A
O442       Cd445   2.403       .  S
C443       O1123   1.270   1_565  A
C444        O449   1.263       .  A
C444        O447   1.261       .  A
C444        C500   1.445       .  S
Cd445      O1112   2.445       .  S
Cd445      O1124   2.540       .  S
Cd445       O451   2.503       .  S
Cd445       O450   2.436       .  S
Cd445      O1118   2.499       .  S
Cd445       O449   2.440       .  S
Cd445       O447   2.400       .  S
O446       C1113   1.268   1_545  A
O446      Cd1117   2.499   1_545  S
C448       O1124   1.270       .  A
O451       C1115   1.270       .  A
O452       C1120   1.270   1_545  A
O452      Cd1117   2.540   1_545  S
O453        C456   1.263       .  A
O453       Cd458   2.457       .  S
C454        O463   1.264       .  A
C454        O459   1.271       .  A
O455        C461   1.262       .  A
O455       Cd458   2.406       .  S
C456        O464   1.270       .  A
C457        O462   1.260       .  A
C457        O460   1.270       .  A
C457        C483   1.466       .  S
Cd458       O465   2.431       .  S
Cd458       O464   2.490       .  S
Cd458       O463   2.443       .  S
Cd458       O459   2.479       .  S
Cd458       O462   2.381       .  S
Cd458       O460   2.542       .  S
C461        O465   1.263       .  A
C461        C474   1.443       .  S
O466        C469   1.269       .  A
O466       Cd471   2.457       .  S
C467        O476   1.271       .  A
C467        O472   1.265       .  A
O468        C474   1.262       .  A
O468       Cd471   2.403       .  S
C469        O477   1.263       .  A
C470        O475   1.261       .  A
C470        O473   1.269       .  A
C470        C496   1.461       .  S
Cd471       O478   2.426       .  S
Cd471       O477   2.450       .  S
Cd471       O476   2.495       .  S
Cd471       O472   2.435       .  S
Cd471       O475   2.376       .  S
Cd471       O473   2.523       .  S
C474        O478   1.263       .  A
O479        C482   1.272       .  A
O479       Cd484   2.536       .  S
C480        O489   1.262       .  A
C480        O485   1.272       .  A
O481        C487   1.266       .  A
O481       Cd484   2.464       .  S
C482        O490   1.258       .  A
C483        O488   1.258       .  A
C483        O486   1.267       .  A
Cd484       O491   2.382       .  S
Cd484       O490   2.403       .  S
Cd484       O489   2.432       .  S
Cd484       O485   2.481       .  S
Cd484       O488   2.392       .  S
Cd484       O486   2.555       .  S
C487        O491   1.261       .  A
O492        C495   1.268       .  A
O492       Cd497   2.458       .  S
C493        O502   1.262       .  A
C493        O498   1.272       .  A
O494        C500   1.266       .  A
O494       Cd497   2.425       .  S
C495        O503   1.262       .  A
C496        O501   1.259       .  A
C496        O499   1.268       .  A
Cd497       O504   2.405       .  S
Cd497       O503   2.451       .  S
Cd497       O502   2.404       .  S
Cd497       O498   2.532       .  S
Cd497       O501   2.381       .  S
Cd497       O499   2.530       .  S
C500        O504   1.264       .  A
C505        C506   1.409       .  A
C505        C510   1.395       .  A
C505        H512   1.080       .  S
C506        C507   1.431       .  A
C507        C508   1.415       .  A
C507        N514   1.438       .  S
C508        C509   1.412       .  A
C508        H513   1.083       .  S
C509       C1769   1.557       .  S
C509        C510   1.417       .  A
C510        N511   1.439       .  S
N511        H515   1.044       .  S
N511        H516   1.046       .  S
N514        H517   1.042       .  S
N514        H518   1.045       .  S
C519        C520   1.408       .  A
C519        C524   1.399       .  A
C519        H526   1.084       .  S
C520        C521   1.425       .  A
C521        C522   1.412       .  A
C521        N528   1.437       .  S
C522        C523   1.415       .  A
C522        H527   1.079       .  S
C523        C524   1.434       .  A
C524        N525   1.441       .  S
N525        H529   1.046       .  S
N525        H530   1.037       .  S
N528        H531   1.046       .  S
N528        H532   1.045       .  S
C533        C534   1.417       .  A
C533        C538   1.411       .  A
C533        H540   1.084       .  S
C534        C535   1.432       .  A
C535        C536   1.405       .  A
C535        N542   1.431       .  S
C536        C537   1.408       .  A
C536        H541   1.080       .  S
C537        C538   1.418       .  A
C538        N539   1.432       .  S
N539        H543   1.046       .  S
N539        H544   1.046       .  S
N542        H545   1.046       .  S
N542        H546   1.046       .  S
C547        C548   1.417       .  A
C547        C552   1.416       .  A
C547        H554   1.077       .  S
C548       C1094   1.571       .  S
C548        C549   1.436       .  A
C549        C550   1.401       .  A
C549        N556   1.443       .  S
C550        C551   1.408       .  A
C550        H555   1.081       .  S
C551        C552   1.421       .  A
C552        N553   1.436       .  S
N553        H557   1.046       .  S
N553        H558   1.046       .  S
N556        H559   1.036       .  S
N556        H560   1.044       .  S
C561        C562   1.415       .  A
C561        C566   1.407       .  A
C561        H568   1.079       .  S
C562        C563   1.422       .  A
C563        C564   1.413       .  A
C563        N570   1.432       .  S
C564        C565   1.416       .  A
C564       H1913   1.084       .  S
C565       C1768   1.577       .  S
C565        C566   1.427       .  A
C566        N567   1.431       .  S
N567        H571   1.046       .  S
N567        H572   1.046       .  S
H569       C1908   1.084   1_455  S
N570        H573   1.045       .  S
N570        H574   1.046       .  S
C575        C576   1.408       .  A
C575        C580   1.403       .  A
C575        H582   1.081       .  S
C576        C577   1.421       .  A
C577        C578   1.415       .  A
C577        N584   1.436       .  S
C578        C579   1.416       .  A
C578        H583   1.077       .  S
C579       C1093   1.570       .  S
C579        C580   1.437       .  A
C580        N581   1.444       .  S
N581        H585   1.044       .  S
N581        H586   1.036       .  S
N584        H587   1.046       .  S
N584        H588   1.046       .  S
C589        C594   1.412       .  A
C589        H596   1.082       .  S
C590       C1685   1.580       .  S
C590        C591   1.432       .  A
C591        C592   1.409       .  A
C591        N598   1.432       .  S
C592        C593   1.414       .  A
C592        H597   1.081       .  S
C594        N595   1.438       .  S
N595        H599   1.046       .  S
N595        H600   1.044       .  S
N598        H601   1.043       .  S
N598        H602   1.041       .  S
C603        C608   1.414       .  A
C603        H610   1.083       .  S
C604        C605   1.439       .  A
C605        C606   1.398       .  A
C605        N612   1.431       .  S
C606        C607   1.407   1_556  A
C606        H611   1.080       .  S
C608        N609   1.436       .  S
N609        H613   1.046       .  S
N609        H614   1.043       .  S
N612        H615   1.044       .  S
N612        H616   1.040       .  S
C617        C618   1.413       .  A
C617        C622   1.411       .  A
C617        H624   1.081       .  S
C619        C620   1.401       .  A
C619        N626   1.433       .  S
C620        H625   1.083       .  S
C621        C622   1.424       .  A
C622        N623   1.438       .  S
N623        H627   1.045       .  S
N623        H628   1.045       .  S
N626        H629   1.046       .  S
N626        H630   1.045       .  S
C631        C632   1.412       .  A
C631        C636   1.406       .  A
C631        H638   1.079       .  S
C633        C634   1.405       .  A
C633        N640   1.441       .  S
C634        H639   1.082       .  S
C635       C1010   1.563       .  S
C635        C636   1.429       .  A
C636        N637   1.438       .  S
N637        H641   1.045       .  S
N637       H1314   1.041       .  S
N640        H643   1.044       .  S
N640        H644   1.046       .  S
H642       N1309   1.041   1_545  S
C645        C646   1.417       .  A
C645        C650   1.412       .  A
C645       H1996   1.072       .  S
C646       C1684   1.573       .  S
C647        C648   1.404       .  A
C647        N654   1.440       .  S
C648        H653   1.082   1_554  S
C649       C1009   1.562       .  S
C649        C650   1.414       .  A
C650        N651   1.437       .  S
N651        H655   1.046       .  S
N651        H656   1.045       .  S
H652       C1989   1.072   1_455  S
N654        H657   1.042       .  S
N654        H658   1.046       .  S
C659        C660   1.417       .  A
C659        C664   1.415       .  A
C659        H666   1.079       .  S
C661        C662   1.399       .  A
C661        N668   1.435       .  S
C662        H667   1.080       .  S
C663        C664   1.420       .  A
C664        N665   1.437       .  S
N665        H669   1.046       .  S
N665       H1342   1.045       .  S
N668        H671   1.046       .  S
N668        H672   1.046       .  S
H670       N1337   1.045   1_545  S
C673        C764   1.536   1_546  S
C673       C1335   1.570   1_545  S
C674       C1070   1.525   1_554  S
C674        C954   1.559       .  S
C675       C1083   1.525   1_554  S
C675        C790   1.531       .  S
C675       C1279   1.565       .  S
C675        C957   1.558       .  S
C676       C1031   1.527   1_554  S
C676        C805   1.521       .  S
C676       C1276   1.582   1_554  S
C676       C2326   1.573   1_455  S
C677       C1016   1.535   1_554  S
C677        C829   1.528       .  S
C677       C2270   1.580   1_455  S
C677        C968   1.566   1_554  S
C678       C1042   1.523       .  S
C678        C818   1.545   1_556  S
C678        C929   1.582       .  S
C678       C1332   1.570       .  S
O679        C682   1.264       .  A
O679       Cd684   2.470       .  S
C680       C1013   1.535       .  S
C680        O689   1.264       .  A
C680        O685   1.270       .  A
O681        C687   1.261       .  A
O681      Cd2028   2.446       .  S
C682        C761   1.531       .  S
C682       O2034   1.269       .  A
C683       O2032   1.260   1_455  A
C683        O686   1.271       .  A
C683        C696   1.469       .  S
Cd684      O2025   2.446   1_455  S
Cd684      O2035   2.386   1_455  S
Cd684      O2034   2.502       .  S
Cd684       O689   2.460       .  S
Cd684       O685   2.458       .  S
Cd684      O2032   2.383   1_455  S
Cd684       O686   2.547       .  S
C687        O691   1.257       .  A
C687        C709   1.442       .  S
O688       C2027   1.260       .  A
O688      Cd2028   2.383       .  S
O690       C2026   1.269       .  A
O690      Cd2028   2.502       .  S
O691      Cd2028   2.386       .  S
O692        C695   1.265       .  A
O692       Cd697   2.468       .  S
C693        C760   1.530       .  S
C693        O702   1.263   1_455  A
C693        O698   1.270       .  A
O694        C700   1.261       .  A
O694      Cd2041   2.415       .  S
C695       C1012   1.527       .  S
C695        O703   1.269       .  A
C696       O2045   1.261   1_455  A
C696        O699   1.270       .  A
Cd697      O2038   2.415   1_455  S
Cd697      O2048   2.403   1_455  S
Cd697       O703   2.497       .  S
Cd697       O702   2.459   1_455  S
Cd697       O698   2.483       .  S
Cd697      O2045   2.388   1_455  S
Cd697       O699   2.547       .  S
C700        O704   1.261       .  A
C700        C726   1.440       .  S
O701       C2040   1.261       .  A
O701      Cd2041   2.388       .  S
O704      Cd2041   2.403       .  S
O705        C708   1.262       .  A
O705       Cd710   2.465       .  S
C706       C1014   1.523       .  S
C706        O715   1.263       .  A
C706        O711   1.272       .  A
O707        C713   1.260       .  A
O707       Cd710   2.374       .  S
C708        C762   1.532       .  S
C708        O716   1.268       .  A
C709        O714   1.260       .  A
C709        O712   1.262       .  A
Cd710       O717   2.545       .  S
Cd710       O716   2.499       .  S
Cd710       O715   2.443       .  S
Cd710       O711   2.459       .  S
Cd710       O714   2.424       .  S
Cd710       O712   2.407       .  S
C713        O717   1.271       .  A
C713        C752   1.466       .  S
C719        O728   1.269       .  A
O720        C726   1.262       .  A
O720       Cd723   2.410       .  S
C721        C757   1.525       .  S
C721        O729   1.264       .  A
C722        O727   1.259       .  A
C722        C735   1.463       .  S
Cd723       O730   2.412       .  S
Cd723       O729   2.441       .  S
Cd723       O728   2.483       .  S
Cd723       O727   2.362       .  S
C726        O730   1.262       .  A
C732        C758   1.526       .  S
C732        O741   1.264       .  A
O733        C739   1.262       .  A
O733       Cd736   2.421       .  S
C734       C1010   1.525       .  S
C734        O742   1.269       .  A
C735        O740   1.260       .  A
Cd736       O743   2.414       .  S
Cd736       O742   2.478       .  S
Cd736       O741   2.445       .  S
Cd736       O740   2.363       .  S
C739        O743   1.260       .  A
C739        C748   1.442       .  S
O744        C747   1.264       .  A
O744       Cd749   2.430       .  S
C745        C759   1.531       .  S
C745        O754   1.263       .  A
C745        O750   1.271       .  A
O746        C752   1.260       .  A
O746       Cd749   2.376       .  S
C747       C1011   1.525       .  S
C747        O755   1.268       .  A
C748        O753   1.261       .  A
C748        O751   1.263       .  A
Cd749       O756   2.544       .  S
Cd749       O755   2.491       .  S
Cd749       O754   2.436       .  S
Cd749       O750   2.493       .  S
Cd749       O753   2.410       .  S
Cd749       O751   2.423       .  S
C752        O756   1.270       .  A
C757        C898   1.578       .  S
C758        C779   1.525       .  S
C758        C870   1.578       .  S
C759        C792   1.531       .  S
C759        C856   1.563       .  S
C759        C873   1.563       .  S
C760        C803   1.524       .  S
C760        C859   1.566       .  S
C760       C2245   1.577   1_455  S
C761        C831   1.531       .  S
C761       C2189   1.557   1_455  S
C761        C887   1.570       .  S
C762        C816   1.533       .  S
C762        C842   1.559       .  S
C762        C912   1.571       .  S
C764        O773   1.262       .  A
O765        C771   1.263       .  A
O765       Cd768   2.478       .  S
C766        O774   1.271   1_565  A
C767        O772   1.262       .  A
C767        C784   1.470       .  S
Cd768       O775   2.368       .  S
Cd768       O774   2.501   1_565  S
Cd768       O773   2.413       .  S
Cd768       O772   2.402       .  S
C771        O775   1.258       .  A
C771        C823   1.446       .  S
O776        C779   1.264       .  A
C777        O786   1.265       .  A
O778        C784   1.261       .  A
O778       Cd781   2.403       .  S
C780        O785   1.263       .  A
C780        O783   1.261       .  A
C780        C836   1.445       .  S
Cd781       O787   2.503   1_565  S
Cd781       O786   2.436       .  S
Cd781       O785   2.440       .  S
Cd781       O783   2.400       .  S
O789        C792   1.263       .  A
O789       Cd794   2.457       .  S
C790        O799   1.264       .  A
C790        O795   1.271       .  A
O791        C797   1.262       .  A
O791       Cd794   2.406       .  S
C792        O800   1.270       .  A
C793        O798   1.260       .  A
C793        O796   1.270       .  A
C793        C819   1.466       .  S
Cd794       O801   2.431       .  S
Cd794       O800   2.490       .  S
Cd794       O799   2.443       .  S
Cd794       O795   2.479       .  S
Cd794       O798   2.381       .  S
Cd794       O796   2.542       .  S
C797        O801   1.263       .  A
C797        C810   1.443       .  S
O802        C805   1.269       .  A
O802       Cd807   2.457       .  S
C803        O812   1.271       .  A
C803        O808   1.265       .  A
O804        C810   1.262       .  A
O804       Cd807   2.403       .  S
C805        O813   1.263       .  A
C806        O811   1.261       .  A
C806        O809   1.269       .  A
C806        C832   1.461       .  S
Cd807       O814   2.426       .  S
Cd807       O813   2.450       .  S
Cd807       O812   2.495       .  S
Cd807       O808   2.435       .  S
Cd807       O811   2.376       .  S
Cd807       O809   2.523       .  S
C810        O814   1.263       .  A
O815        C818   1.272       .  A
O815       Cd820   2.536       .  S
C816        O825   1.262       .  A
C816        O821   1.272       .  A
O817        C823   1.266       .  A
O817       Cd820   2.464       .  S
C818        O826   1.258       .  A
C819        O824   1.258       .  A
C819        O822   1.267       .  A
Cd820       O827   2.382       .  S
Cd820       O826   2.403       .  S
Cd820       O825   2.432       .  S
Cd820       O821   2.481       .  S
Cd820       O824   2.392       .  S
Cd820       O822   2.555       .  S
C823        O827   1.261       .  A
O828        C831   1.268       .  A
O828       Cd833   2.458       .  S
C829        O838   1.262       .  A
C829        O834   1.272       .  A
O830        C836   1.266       .  A
O830       Cd833   2.425       .  S
C831        O839   1.262       .  A
C832        O837   1.259       .  A
C832        O835   1.268       .  A
Cd833       O840   2.405       .  S
Cd833       O839   2.451       .  S
Cd833       O838   2.404       .  S
Cd833       O834   2.532       .  S
Cd833       O837   2.381       .  S
Cd833       O835   2.530       .  S
C836        O840   1.264       .  A
C841        C842   1.409       .  A
C841        C846   1.395       .  A
C841        H848   1.080       .  S
C842        C843   1.431       .  A
C843        C844   1.415       .  A
C843        N850   1.438       .  S
C844        C845   1.412       .  A
C844        H849   1.083       .  S
C845       C2105   1.557       .  S
C845        C846   1.417       .  A
C846        N847   1.439       .  S
N847        H851   1.044       .  S
N847        H852   1.046       .  S
N850        H853   1.042       .  S
N850        H854   1.045       .  S
C855        C856   1.408       .  A
C855        C860   1.399       .  A
C855        H862   1.084       .  S
C856        C857   1.425       .  A
C857        C858   1.412       .  A
C857        N864   1.437       .  S
C858        C859   1.415       .  A
C858        H863   1.079       .  S
C859        C860   1.434       .  A
C860        N861   1.441       .  S
N861        H865   1.046       .  S
N861        H866   1.037       .  S
N864        H867   1.046       .  S
N864        H868   1.045       .  S
C869        C870   1.417       .  A
C869        C874   1.411       .  A
C869        H876   1.084       .  S
C870        C871   1.432       .  A
C871        C872   1.405       .  A
C871        N878   1.431       .  S
C872        C873   1.408       .  A
C872        H877   1.080       .  S
C873        C874   1.418       .  A
C874        N875   1.432       .  S
N875        H879   1.046       .  S
N875        H880   1.046       .  S
N878        H881   1.046       .  S
N878        H882   1.046       .  S
C883        C884   1.417       .  A
C883        C888   1.416       .  A
C883        H890   1.077       .  S
C884        C885   1.436       .  A
C885        C886   1.401       .  A
C885        N892   1.443       .  S
C886        C887   1.408       .  A
C886        H891   1.081       .  S
C887        C888   1.421       .  A
C888        N889   1.436       .  S
N889        H893   1.046       .  S
N889        H894   1.046       .  S
N892        H895   1.036       .  S
N892        H896   1.044       .  S
C897        C898   1.415       .  A
C897        C902   1.407       .  A
C897        H904   1.079       .  S
C898        C899   1.422       .  A
C899        C900   1.413       .  A
C899        N906   1.432       .  S
C900        C901   1.416       .  A
C900       H2249   1.084       .  S
C901       C2104   1.577       .  S
C901        C902   1.427       .  A
C902        N903   1.431       .  S
N903        H907   1.046       .  S
N903        H908   1.046       .  S
H905       C2244   1.084   1_455  S
N906        H909   1.045       .  S
N906        H910   1.046       .  S
C911        C912   1.408       .  A
C911        C916   1.403       .  A
C911        H918   1.081       .  S
C912        C913   1.421       .  A
C913        C914   1.415       .  A
C913        N920   1.436       .  S
C914        C915   1.416       .  A
C914        H919   1.077       .  S
C915        C916   1.437       .  A
C916        N917   1.444       .  S
N917        H921   1.044       .  S
N917        H922   1.036       .  S
N920        H923   1.046       .  S
N920        H924   1.046       .  S
C925       C1262   1.417       .  A
C925        C930   1.412       .  A
C925        H932   1.082       .  S
C926       C2021   1.580       .  S
C926       C1261   1.417   1_554  A
C926        C927   1.432       .  A
C927        C928   1.409       .  A
C927        N934   1.432       .  S
C928        C929   1.414   1_554  A
C928        H933   1.081       .  S
C929       C1266   1.426       .  A
C930       C1265   1.426       .  A
C930        N931   1.438       .  S
N931        H935   1.046       .  S
N931        H936   1.044       .  S
N934        H937   1.043       .  S
N934        H938   1.041       .  S
C939       C1276   1.418   1_554  A
C939        C944   1.414       .  A
C939        H946   1.083       .  S
C940       C1012   1.582       .  S
C940       C1275   1.418       .  A
C940        C941   1.439       .  A
C941        C942   1.398       .  A
C941        N948   1.431       .  S
C942        C943   1.407       .  A
C942        H947   1.080       .  S
C943       C1011   1.565       .  S
C943       C1280   1.419       .  A
C944       C1279   1.419       .  A
C944        N945   1.436       .  S
N945        H949   1.046       .  S
N945        H950   1.043       .  S
N948        H951   1.044       .  S
N948        H952   1.040       .  S
C953        C954   1.413   1_556  A
C953        C958   1.411       .  A
C953        H960   1.081       .  S
C954       C1291   1.417       .  A
C955       C1290   1.417       .  A
C955        C956   1.401       .  A
C955        N962   1.433       .  S
C956       C1293   1.413       .  A
C956        H961   1.083       .  S
C957       C1292   1.413       .  A
C957        C958   1.424   1_554  A
C958        N959   1.438       .  S
N959        H963   1.045       .  S
N959        H964   1.045       .  S
N962        H965   1.046       .  S
N962        H966   1.045       .  S
C967        C968   1.412   1_554  A
C967        C972   1.406       .  A
C967        H974   1.079       .  S
C968       C1305   1.430       .  A
C969       C1304   1.430       .  A
C969        C970   1.405       .  A
C969        N976   1.441       .  S
C970       C1307   1.411       .  A
C970        H975   1.082       .  S
C971       C1306   1.411   1_554  A
C971        C972   1.429       .  A
C972        N973   1.438       .  S
N973        H977   1.045   1_565  S
N976        H979   1.044       .  S
N976        H980   1.046       .  S
C981        C982   1.417       .  A
C981        C986   1.412       .  A
C981       H2332   1.072       .  S
C982       C2020   1.573       .  S
C982       C1319   1.430       .  A
C983       C1318   1.430       .  A
C983        C984   1.404       .  A
C983        N990   1.440       .  S
C984       C1321   1.408       .  A
C984        H989   1.082       .  S
C985       C1320   1.408       .  A
C985        C986   1.414       .  A
C986        N987   1.437       .  S
N987        H991   1.046       .  S
N987        H992   1.045       .  S
H988       C2325   1.072   1_455  S
N990        H993   1.042       .  S
N990        H994   1.046       .  S
C995        C996   1.417       .  A
C995       C1000   1.415       .  A
C995       H1002   1.079       .  S
C996       C1014   1.570       .  S
C996       C1333   1.427       .  A
C997       C1332   1.427       .  A
C997        C998   1.399       .  A
C997       N1004   1.435       .  S
C998       C1335   1.409       .  A
C998       H1003   1.080       .  S
C999       C1009   1.570   1_565  S
C999       C1334   1.409       .  A
C999       C1000   1.420       .  A
C1000      N1001   1.437       .  S
N1001      H1005   1.046       .  S
N1004      H1007   1.046       .  S
N1004      H1008   1.046   1_556  S
C1009      C1100   1.536   1_545  S
C1010      C1290   1.559       .  S
C1011      C1126   1.531       .  S
C1011      C1293   1.558       .  S
C1012      C1141   1.521       .  S
C1012      C2662   1.573   1_455  S
C1013      C1165   1.528       .  S
C1013      C2606   1.580   1_455  S
C1013      C1304   1.566       .  S
C1014      C1154   1.545       .  S
C1014      C1265   1.582       .  S
O1015      C1018   1.264       .  A
O1015     Cd1020   2.470       .  S
C1016      O1025   1.264       .  A
C1016      O1021   1.270       .  A
O1017      C1023   1.261       .  A
O1017     Cd2364   2.446       .  S
C1018      C1097   1.531       .  S
C1018      O2370   1.269       .  A
C1019      O2368   1.260   1_455  A
C1019      O1022   1.271       .  A
C1019      C1032   1.469       .  S
Cd1020     O2361   2.446   1_455  S
Cd1020     O2371   2.386   1_455  S
Cd1020     O2370   2.502       .  S
Cd1020     O1025   2.460       .  S
Cd1020     O1021   2.458       .  S
Cd1020     O2368   2.383   1_455  S
Cd1020     O1022   2.547       .  S
C1023      O1027   1.257       .  A
C1023      C1045   1.442       .  S
O1024      C2363   1.260       .  A
O1024     Cd2364   2.383       .  S
O1026      C2362   1.269       .  A
O1026     Cd2364   2.502       .  S
O1027     Cd2364   2.386       .  S
O1028      C1031   1.265       .  A
O1028     Cd1033   2.468       .  S
C1029      C1096   1.530       .  S
C1029      O1038   1.263   1_455  A
C1029      O1034   1.270       .  A
O1030      C1036   1.261       .  A
O1030     Cd2377   2.415       .  S
C1031      O1039   1.269       .  A
C1032      O2381   1.261   1_455  A
C1032      O1035   1.270       .  A
Cd1033     O2374   2.415   1_455  S
Cd1033     O2384   2.403   1_455  S
Cd1033     O1039   2.497       .  S
Cd1033     O1038   2.459   1_455  S
Cd1033     O1034   2.483       .  S
Cd1033     O2381   2.388   1_455  S
Cd1033     O1035   2.547       .  S
C1036      O1040   1.261       .  A
C1036      C1062   1.440       .  S
O1037      C2376   1.261       .  A
O1037     Cd2377   2.388       .  S
O1040     Cd2377   2.403       .  S
O1041      C1044   1.262       .  A
O1041     Cd1046   2.465       .  S
C1042      O1051   1.263       .  A
C1042      O1047   1.272       .  A
O1043      C1049   1.260       .  A
O1043     Cd1046   2.374       .  S
C1044      C1098   1.532       .  S
C1044      O1052   1.268       .  A
C1045      O1050   1.260       .  A
C1045      O1048   1.262       .  A
Cd1046     O1053   2.545       .  S
Cd1046     O1052   2.499       .  S
Cd1046     O1051   2.443       .  S
Cd1046     O1047   2.459       .  S
Cd1046     O1050   2.424       .  S
Cd1046     O1048   2.407       .  S
C1049      O1053   1.271       .  A
C1049      C1088   1.466       .  S
C1055      O1064   1.269       .  A
O1056      C1062   1.262       .  A
O1056     Cd1059   2.410       .  S
C1057      C1093   1.525       .  S
C1057      O1065   1.264       .  A
C1058      O1063   1.259       .  A
C1058      C1071   1.463       .  S
Cd1059     O1066   2.412       .  S
Cd1059     O1065   2.441       .  S
Cd1059     O1064   2.483       .  S
Cd1059     O1063   2.362       .  S
C1062      O1066   1.262       .  A
C1068      C1094   1.526       .  S
C1068      O1077   1.264       .  A
O1069      C1075   1.262       .  A
O1069     Cd1072   2.421       .  S
C1070      O1078   1.269       .  A
C1071      O1076   1.260       .  A
Cd1072     O1079   2.414       .  S
Cd1072     O1078   2.478       .  S
Cd1072     O1077   2.445       .  S
Cd1072     O1076   2.363       .  S
C1075      O1079   1.260       .  A
C1075      C1084   1.442       .  S
O1080      C1083   1.264       .  A
O1080     Cd1085   2.430       .  S
C1081      C1095   1.531       .  S
C1081      O1090   1.263       .  A
C1081      O1086   1.271       .  A
O1082      C1088   1.260       .  A
O1082     Cd1085   2.376       .  S
C1083      O1091   1.268       .  A
C1084      O1089   1.261       .  A
C1084      O1087   1.263       .  A
Cd1085     O1092   2.544       .  S
Cd1085     O1091   2.491       .  S
Cd1085     O1090   2.436       .  S
Cd1085     O1086   2.493       .  S
Cd1085     O1089   2.410       .  S
Cd1085     O1087   2.423       .  S
C1088      O1092   1.270       .  A
C1093      C1234   1.578       .  S
C1094      C1115   1.525       .  S
C1094      C1206   1.578       .  S
C1095      C1128   1.531       .  S
C1095      C1192   1.563       .  S
C1095      C1209   1.563       .  S
C1096      C1139   1.524       .  S
C1096      C1195   1.566       .  S
C1096      C2581   1.577   1_455  S
C1097      C1167   1.531       .  S
C1097      C2525   1.557   1_455  S
C1097      C1223   1.570       .  S
C1098      C1152   1.533       .  S
C1098      C1178   1.559       .  S
C1098      C1248   1.571       .  S
C1100      O1109   1.262       .  A
O1101      C1107   1.263       .  A
O1101     Cd1104   2.478       .  S
C1102      O1110   1.271   1_565  A
C1103      O1108   1.262       .  A
C1103      C1120   1.470       .  S
Cd1104     O1111   2.368       .  S
Cd1104     O1110   2.501   1_565  S
Cd1104     O1109   2.413       .  S
Cd1104     O1108   2.402       .  S
C1107      O1111   1.258       .  A
C1107      C1159   1.446       .  S
O1112      C1115   1.264       .  A
C1113      O1122   1.265       .  A
O1114      C1120   1.261       .  A
O1114     Cd1117   2.403       .  S
C1116      O1121   1.263       .  A
C1116      O1119   1.261       .  A
C1116      C1172   1.445       .  S
Cd1117     O1123   2.503   1_565  S
Cd1117     O1122   2.436       .  S
Cd1117     O1121   2.440       .  S
Cd1117     O1119   2.400       .  S
O1125      C1128   1.263       .  A
O1125     Cd1130   2.457       .  S
C1126      O1135   1.264       .  A
C1126      O1131   1.271       .  A
O1127      C1133   1.262       .  A
O1127     Cd1130   2.406       .  S
C1128      O1136   1.270       .  A
C1129      O1134   1.260       .  A
C1129      O1132   1.270       .  A
C1129      C1155   1.466       .  S
Cd1130     O1137   2.431       .  S
Cd1130     O1136   2.490       .  S
Cd1130     O1135   2.443       .  S
Cd1130     O1131   2.479       .  S
Cd1130     O1134   2.381       .  S
Cd1130     O1132   2.542       .  S
C1133      O1137   1.263       .  A
C1133      C1146   1.443       .  S
O1138      C1141   1.269       .  A
O1138     Cd1143   2.457       .  S
C1139      O1148   1.271       .  A
C1139      O1144   1.265       .  A
O1140      C1146   1.262       .  A
O1140     Cd1143   2.403       .  S
C1141      O1149   1.263       .  A
C1142      O1147   1.261       .  A
C1142      O1145   1.269       .  A
C1142      C1168   1.461       .  S
Cd1143     O1150   2.426       .  S
Cd1143     O1149   2.450       .  S
Cd1143     O1148   2.495       .  S
Cd1143     O1144   2.435       .  S
Cd1143     O1147   2.376       .  S
Cd1143     O1145   2.523       .  S
C1146      O1150   1.263       .  A
O1151      C1154   1.272       .  A
O1151     Cd1156   2.536       .  S
C1152      O1161   1.262       .  A
C1152      O1157   1.272       .  A
O1153      C1159   1.266       .  A
O1153     Cd1156   2.464       .  S
C1154      O1162   1.258       .  A
C1155      O1160   1.258       .  A
C1155      O1158   1.267       .  A
Cd1156     O1163   2.382       .  S
Cd1156     O1162   2.403       .  S
Cd1156     O1161   2.432       .  S
Cd1156     O1157   2.481       .  S
Cd1156     O1160   2.392       .  S
Cd1156     O1158   2.555       .  S
C1159      O1163   1.261       .  A
O1164      C1167   1.268       .  A
O1164     Cd1169   2.458       .  S
C1165      O1174   1.262       .  A
C1165      O1170   1.272       .  A
O1166      C1172   1.266       .  A
O1166     Cd1169   2.425       .  S
C1167      O1175   1.262       .  A
C1168      O1173   1.259       .  A
C1168      O1171   1.268       .  A
Cd1169     O1176   2.405       .  S
Cd1169     O1175   2.451       .  S
Cd1169     O1174   2.404       .  S
Cd1169     O1170   2.532       .  S
Cd1169     O1173   2.381       .  S
Cd1169     O1171   2.530       .  S
C1172      O1176   1.264       .  A
C1177      C1178   1.409       .  A
C1177      C1182   1.395       .  A
C1177      H1184   1.080       .  S
C1178      C1179   1.431       .  A
C1179      C1180   1.415       .  A
C1179      N1186   1.438       .  S
C1180      C1181   1.412       .  A
C1180      H1185   1.083       .  S
C1181      C2441   1.557       .  S
C1181      C1182   1.417       .  A
C1182      N1183   1.439       .  S
N1183      H1187   1.044       .  S
N1183      H1188   1.046       .  S
N1186      H1189   1.042       .  S
N1186      H1190   1.045       .  S
C1191      C1192   1.408       .  A
C1191      C1196   1.399       .  A
C1191      H1198   1.084       .  S
C1192      C1193   1.425       .  A
C1193      C1194   1.412       .  A
C1193      N1200   1.437       .  S
C1194      C1195   1.415       .  A
C1194      H1199   1.079       .  S
C1195      C1196   1.434       .  A
C1196      N1197   1.441       .  S
N1197      H1201   1.046       .  S
N1197      H1202   1.037       .  S
N1200      H1203   1.046       .  S
N1200      H1204   1.045       .  S
C1205      C1206   1.417       .  A
C1205      C1210   1.411       .  A
C1205      H1212   1.084       .  S
C1206      C1207   1.432       .  A
C1207      C1208   1.405       .  A
C1207      N1214   1.431       .  S
C1208      C1209   1.408       .  A
C1208      H1213   1.080       .  S
C1209      C1210   1.418       .  A
C1210      N1211   1.432       .  S
N1211      H1215   1.046       .  S
N1211      H1216   1.046       .  S
N1214      H1217   1.046       .  S
N1214      H1218   1.046       .  S
C1219      C1220   1.417       .  A
C1219      C1224   1.416       .  A
C1219      H1226   1.077       .  S
C1220      C1221   1.436       .  A
C1221      C1222   1.401       .  A
C1221      N1228   1.443       .  S
C1222      C1223   1.408       .  A
C1222      H1227   1.081       .  S
C1223      C1224   1.421       .  A
C1224      N1225   1.436       .  S
N1225      H1229   1.046       .  S
N1225      H1230   1.046       .  S
N1228      H1231   1.036       .  S
N1228      H1232   1.044       .  S
C1233      C1234   1.415       .  A
C1233      C1238   1.407       .  A
C1233      H1240   1.079       .  S
C1234      C1235   1.422       .  A
C1235      C1236   1.413       .  A
C1235      N1242   1.432       .  S
C1236      C1237   1.416       .  A
C1236      H2585   1.084       .  S
C1237      C2440   1.577       .  S
C1237      C1238   1.427       .  A
C1238      N1239   1.431       .  S
N1239      H1243   1.046       .  S
N1239      H1244   1.046       .  S
H1241      C2580   1.084   1_455  S
N1242      H1245   1.045       .  S
N1242      H1246   1.046       .  S
C1247      C1248   1.408       .  A
C1247      C1252   1.403       .  A
C1247      H1254   1.081       .  S
C1248      C1249   1.421       .  A
C1249      C1250   1.415       .  A
C1249      N1256   1.436       .  S
C1250      C1251   1.416       .  A
C1250      H1255   1.077       .  S
C1251      C1252   1.437       .  A
C1252      N1253   1.444       .  S
N1253      H1257   1.044       .  S
N1253      H1258   1.036       .  S
N1256      H1259   1.046       .  S
N1256      H1260   1.046       .  S
C1261      C1266   1.412       .  A
C1261      H1268   1.082       .  S
C1262      C2357   1.580       .  S
C1262      C1263   1.432       .  A
C1263      C1264   1.409       .  A
C1263      N1270   1.432       .  S
C1264      C1265   1.414       .  A
C1264      H1269   1.081       .  S
C1266      N1267   1.438       .  S
N1267      H1271   1.046       .  S
N1267      H1272   1.044       .  S
N1270      H1273   1.043       .  S
N1270      H1274   1.041       .  S
C1275      C1280   1.414       .  A
C1275      H1282   1.083       .  S
C1276      C1277   1.439       .  A
C1277      C1278   1.398       .  A
C1277      N1284   1.431       .  S
C1278      C1279   1.407   1_556  A
C1278      H1283   1.080       .  S
C1280      N1281   1.436       .  S
N1281      H1285   1.046       .  S
N1281      H1286   1.043       .  S
N1284      H1287   1.044       .  S
N1284      H1288   1.040       .  S
C1289      C1290   1.413       .  A
C1289      C1294   1.411       .  A
C1289      H1296   1.081       .  S
C1291      C1292   1.401       .  A
C1291      N1298   1.433       .  S
C1292      H1297   1.083       .  S
C1293      C1294   1.424       .  A
C1294      N1295   1.438       .  S
N1295      H1299   1.045       .  S
N1295      H1300   1.045       .  S
N1298      H1301   1.046       .  S
N1298      H1302   1.045       .  S
C1303      C1304   1.412       .  A
C1303      C1308   1.406       .  A
C1303      H1310   1.079       .  S
C1305      C1306   1.405       .  A
C1305      N1312   1.441       .  S
C1306      H1311   1.082       .  S
C1307      C1308   1.429       .  A
C1308      N1309   1.438       .  S
N1309      H1313   1.045   1_565  S
N1312      H1315   1.044       .  S
N1312      H1316   1.046       .  S
C1317      C1318   1.417       .  A
C1317      C1322   1.412       .  A
C1317      H2668   1.072       .  S
C1318      C2356   1.573       .  S
C1319      C1320   1.404       .  A
C1319      N1326   1.440       .  S
C1320      H1325   1.082   1_554  S
C1321      C1322   1.414       .  A
C1322      N1323   1.437       .  S
N1323      H1327   1.046       .  S
N1323      H1328   1.045       .  S
H1324      C2661   1.072   1_455  S
N1326      H1329   1.042       .  S
N1326      H1330   1.046       .  S
C1331      C1332   1.417       .  A
C1331      C1336   1.415       .  A
C1331      H1338   1.079       .  S
C1333      C1334   1.399       .  A
C1333      N1340   1.435       .  S
C1334      H1339   1.080       .  S
C1335      C1336   1.420       .  A
C1336      N1337   1.437       .  S
N1337      H1341   1.046       .  S
N1340      H1343   1.046       .  S
N1340      H1344   1.046       .  S
C1345      C2399   1.523       .  S
C1345      C1436   1.536   1_556  S
C1345      C2329   1.562   1_556  S
C1345      C2007   1.570       .  S
C1346      C1742   1.525   1_554  S
C1346      C2121   1.529   1_545  S
C1346      C1626   1.559       .  S
C1346      C2315   1.563   1_545  S
C1347      C1755   1.525   1_554  S
C1347      C1462   1.531       .  S
C1347      C1951   1.565       .  S
C1347      C1629   1.558       .  S
C1348      C1703   1.527   1_554  S
C1348      C1477   1.521       .  S
C1348      C1948   1.582   1_554  S
C1349      C1688   1.535   1_554  S
C1349      C1501   1.528       .  S
C1349      C1640   1.566   1_554  S
C1350      C1714   1.523       .  S
C1350      C1490   1.545   1_556  S
C1350      C1601   1.582       .  S
C1350      C2004   1.570       .  S
O1351      C1354   1.264       .  A
O1351     Cd1356   2.470       .  S
C1352      C1685   1.535       .  S
C1352      O1361   1.264       .  A
C1352      O1357   1.270       .  A
O1353      C1359   1.261       .  A
C1354      C1433   1.531       .  S
C1355      O1358   1.271       .  A
C1355      C1368   1.469       .  S
Cd1356     O1361   2.460       .  S
Cd1356     O1357   2.458       .  S
Cd1356     O1358   2.547       .  S
C1359      O1363   1.257       .  A
C1359      C1381   1.442       .  S
O1364      C1367   1.265       .  A
O1364     Cd1369   2.468       .  S
C1365      C1432   1.530       .  S
C1365      O1374   1.263       .  A
C1365      O1370   1.270       .  A
O1366      C1372   1.261       .  A
C1367      C1684   1.527       .  S
C1367      O1375   1.269       .  A
C1368      O1371   1.270       .  A
Cd1369     O1375   2.497       .  S
Cd1369     O1374   2.459       .  S
Cd1369     O1370   2.483       .  S
Cd1369     O1371   2.547       .  S
C1372      O1376   1.261       .  A
C1372      C1398   1.440       .  S
O1377      C1380   1.262       .  A
O1377     Cd1382   2.465       .  S
C1378      C1686   1.523       .  S
C1378      O1387   1.263       .  A
C1378      O1383   1.272       .  A
O1379      C1385   1.260       .  A
O1379     Cd1382   2.374       .  S
C1380      C1434   1.532       .  S
C1380      O1388   1.268       .  A
C1381      O1386   1.260       .  A
C1381      O1384   1.262       .  A
Cd1382     O1389   2.545       .  S
Cd1382     O1388   2.499       .  S
Cd1382     O1387   2.443       .  S
Cd1382     O1383   2.459       .  S
Cd1382     O1386   2.424       .  S
Cd1382     O1384   2.407       .  S
C1385      O1389   1.271       .  A
C1385      C1424   1.466       .  S
O1390      C2065   1.271       .  A
O1390     Cd2067   2.464       .  S
C1391      C2353   1.523       .  S
C1391      O1400   1.269       .  A
C1391      O2068   1.262       .  A
O1392      C1398   1.262       .  A
O1392     Cd1395   2.410       .  S
C1393      C1429   1.525       .  S
C1393      O2062   1.271   1_545  A
C1393      O1401   1.264       .  A
C1394      O1399   1.259       .  A
C1394      O2069   1.270   1_545  A
C1394      C1407   1.463       .  S
Cd1395     O2062   2.464   1_545  S
Cd1395     O1402   2.412       .  S
Cd1395     O1401   2.441       .  S
Cd1395     O1400   2.483       .  S
Cd1395     O2068   2.444       .  S
Cd1395     O1399   2.362       .  S
Cd1395     O2069   2.541   1_545  S
O1396      C2063   1.262       .  A
O1396     Cd2067   2.444       .  S
O1397      C2066   1.270       .  A
O1397     Cd2067   2.541       .  S
C1398      O1402   1.262       .  A
O1403      C2078   1.265       .  A
O1403     Cd2080   2.449       .  S
C1404      C1430   1.526   1_545  S
C1404      O1413   1.264       .  A
C1404      O2081   1.271   1_545  A
O1405      C1411   1.262       .  A
O1405     Cd1408   2.421       .  S
C1406      C1682   1.525       .  S
C1406      O2075   1.265       .  A
C1406      O1414   1.269       .  A
C1407      O1412   1.260       .  A
C1407      O2082   1.270   1_545  A
Cd1408     O2075   2.449       .  S
Cd1408     O1415   2.414       .  S
Cd1408     O1414   2.478       .  S
Cd1408     O1413   2.445       .  S
Cd1408     O2081   2.467   1_545  S
Cd1408     O1412   2.363       .  S
Cd1408     O2082   2.540   1_545  S
O1409      C2076   1.271       .  A
O1409     Cd2080   2.467       .  S
O1410      C2079   1.270       .  A
O1410     Cd2080   2.540       .  S
C1411      O1415   1.260       .  A
C1411      C1420   1.442       .  S
O1416      C1419   1.264       .  A
O1416     Cd1421   2.430       .  S
C1417      C1431   1.531       .  S
C1417      O1426   1.263       .  A
C1417      O1422   1.271       .  A
O1418      C1424   1.260       .  A
O1418     Cd1421   2.376       .  S
C1419      C1683   1.525       .  S
C1419      O1427   1.268       .  A
C1420      O1425   1.261       .  A
C1420      O1423   1.263       .  A
Cd1421     O1428   2.544       .  S
Cd1421     O1427   2.491       .  S
Cd1421     O1426   2.436       .  S
Cd1421     O1422   2.493       .  S
Cd1421     O1425   2.410       .  S
Cd1421     O1423   2.423       .  S
C1424      O1428   1.270       .  A
C1429      C2110   1.531   1_545  S
C1429      C1570   1.578       .  S
C1429      C2259   1.570   1_545  S
C1430      C1451   1.525       .  S
C1430      C1542   1.578   1_565  S
C1430      C2228   1.571       .  S
C1431      C1464   1.531       .  S
C1431      C1528   1.563       .  S
C1431      C1545   1.563       .  S
C1432      C1475   1.524       .  S
C1432      C1531   1.566       .  S
C1433      C1503   1.531       .  S
C1433      C1559   1.570       .  S
C1434      C1488   1.533       .  S
C1434      C1514   1.559       .  S
C1434      C1584   1.571       .  S
O1435      C2110   1.264       .  A
O1435     Cd2112   2.443       .  S
C1436      O1445   1.262       .  A
C1436      O2113   1.271       .  A
O1437      C1443   1.263       .  A
O1437     Cd1440   2.478       .  S
C1438      C2101   1.531       .  S
C1438      O2107   1.264       .  A
C1438      O1446   1.271       .  A
C1439      O1444   1.262       .  A
C1439      O2114   1.270       .  A
C1439      C1456   1.470       .  S
Cd1440     O2107   2.443       .  S
Cd1440     O1447   2.368       .  S
Cd1440     O1446   2.501       .  S
Cd1440     O1445   2.413       .  S
Cd1440     O2113   2.496       .  S
Cd1440     O1444   2.402       .  S
Cd1440     O2114   2.534       .  S
O1441      C2108   1.271   1_545  A
O1441     Cd2112   2.496   1_545  S
O1442      C2111   1.270   1_545  A
O1442     Cd2112   2.534   1_545  S
C1443      O1447   1.258       .  A
C1443      C1495   1.446       .  S
O1448      C1451   1.264       .  A
O1448     Cd2125   2.445       .  S
C1449      C2018   1.529       .  S
C1449      O1458   1.265       .  A
C1449      O2126   1.268       .  A
O1450      C1456   1.261       .  A
O1450     Cd1453   2.403       .  S
C1451      O2131   1.270   1_565  A
C1452      O1457   1.263       .  A
C1452      O1455   1.261       .  A
C1452      C1508   1.445       .  S
Cd1453     O2120   2.445       .  S
Cd1453     O2132   2.540       .  S
Cd1453     O1459   2.503       .  S
Cd1453     O1458   2.436       .  S
Cd1453     O2126   2.499       .  S
Cd1453     O1457   2.440       .  S
Cd1453     O1455   2.400       .  S
O1454      C2121   1.268   1_545  A
O1454     Cd2125   2.499   1_545  S
C1456      O2132   1.270       .  A
O1459      C2123   1.270       .  A
O1460      C2128   1.270   1_545  A
O1460     Cd2125   2.540   1_545  S
O1461      C1464   1.263       .  A
O1461     Cd1466   2.457       .  S
C1462      O1471   1.264       .  A
C1462      O1467   1.271       .  A
O1463      C1469   1.262       .  A
O1463     Cd1466   2.406       .  S
C1464      O1472   1.270       .  A
C1465      O1470   1.260       .  A
C1465      O1468   1.270       .  A
C1465      C1491   1.466       .  S
Cd1466     O1473   2.431       .  S
Cd1466     O1472   2.490       .  S
Cd1466     O1471   2.443       .  S
Cd1466     O1467   2.479       .  S
Cd1466     O1470   2.381       .  S
Cd1466     O1468   2.542       .  S
C1469      O1473   1.263       .  A
C1469      C1482   1.443       .  S
O1474      C1477   1.269       .  A
O1474     Cd1479   2.457       .  S
C1475      O1484   1.271       .  A
C1475      O1480   1.265       .  A
O1476      C1482   1.262       .  A
O1476     Cd1479   2.403       .  S
C1477      O1485   1.263       .  A
C1478      O1483   1.261       .  A
C1478      O1481   1.269       .  A
C1478      C1504   1.461       .  S
Cd1479     O1486   2.426       .  S
Cd1479     O1485   2.450       .  S
Cd1479     O1484   2.495       .  S
Cd1479     O1480   2.435       .  S
Cd1479     O1483   2.376       .  S
Cd1479     O1481   2.523       .  S
C1482      O1486   1.263       .  A
O1487      C1490   1.272       .  A
O1487     Cd1492   2.536       .  S
C1488      O1497   1.262       .  A
C1488      O1493   1.272       .  A
O1489      C1495   1.266       .  A
O1489     Cd1492   2.464       .  S
C1490      O1498   1.258       .  A
C1491      O1496   1.258       .  A
C1491      O1494   1.267       .  A
Cd1492     O1499   2.382       .  S
Cd1492     O1498   2.403       .  S
Cd1492     O1497   2.432       .  S
Cd1492     O1493   2.481       .  S
Cd1492     O1496   2.392       .  S
Cd1492     O1494   2.555       .  S
C1495      O1499   1.261       .  A
O1500      C1503   1.268       .  A
O1500     Cd1505   2.458       .  S
C1501      O1510   1.262       .  A
C1501      O1506   1.272       .  A
O1502      C1508   1.266       .  A
O1502     Cd1505   2.425       .  S
C1503      O1511   1.262       .  A
C1504      O1509   1.259       .  A
C1504      O1507   1.268       .  A
Cd1505     O1512   2.405       .  S
Cd1505     O1511   2.451       .  S
Cd1505     O1510   2.404       .  S
Cd1505     O1506   2.532       .  S
Cd1505     O1509   2.381       .  S
Cd1505     O1507   2.530       .  S
C1508      O1512   1.264       .  A
C1513      C1514   1.409       .  A
C1513      C1518   1.395       .  A
C1513      H1520   1.080       .  S
C1514      C1515   1.431       .  A
C1515      C1516   1.415       .  A
C1515      N1522   1.438       .  S
C1516      C1517   1.412       .  A
C1516      H1521   1.083   1_655  S
C1517      C1518   1.417       .  A
C1518      N1519   1.439       .  S
N1519      H1523   1.044       .  S
N1519      H1524   1.046       .  S
N1522      H1525   1.042       .  S
N1522      H1526   1.045       .  S
C1527      C1528   1.408       .  A
C1527      C1532   1.399       .  A
C1527      H1534   1.084       .  S
C1528      C1529   1.425       .  A
C1529      C1530   1.412       .  A
C1529      N1536   1.437       .  S
C1530      C1531   1.415       .  A
C1530      H1535   1.079       .  S
C1531      C1532   1.434       .  A
C1532      N1533   1.441       .  S
N1533      H1537   1.046       .  S
N1533      H1538   1.037       .  S
N1536      H1539   1.046       .  S
N1536      H1540   1.045       .  S
C1541      C1542   1.417       .  A
C1541      C1546   1.411       .  A
C1541      H1548   1.084       .  S
C1542      C1543   1.432       .  A
C1543      C1544   1.405       .  A
C1543      N1550   1.431       .  S
C1544      C1545   1.408       .  A
C1544      H1549   1.080       .  S
C1545      C1546   1.418       .  A
C1546      N1547   1.432       .  S
N1547      H1551   1.046       .  S
N1547      H1552   1.046       .  S
N1550      H1553   1.046       .  S
N1550      H1554   1.046       .  S
C1555      C1556   1.417       .  A
C1555      C1560   1.416       .  A
C1555      H1562   1.077       .  S
C1556      C2102   1.571       .  S
C1556      C1557   1.436       .  A
C1557      C1558   1.401       .  A
C1557      N1564   1.443       .  S
C1558      C1559   1.408       .  A
C1558      H1563   1.081       .  S
C1559      C1560   1.421       .  A
C1560      N1561   1.436       .  S
N1561      H1565   1.046       .  S
N1561      H1566   1.046       .  S
N1564      H1567   1.036       .  S
N1564      H1568   1.044       .  S
C1569      C1570   1.415       .  A
C1569      C1574   1.407       .  A
C1569      H1576   1.079       .  S
C1570      C1571   1.422       .  A
C1571      C1572   1.413       .  A
C1571      N1578   1.432       .  S
C1572      C1573   1.416       .  A
C1573      C1574   1.427       .  A
C1574      N1575   1.431       .  S
N1575      H1579   1.046       .  S
N1575      H1580   1.046       .  S
N1578      H1581   1.045       .  S
N1578      H1582   1.046       .  S
C1583      C1584   1.408       .  A
C1583      C1588   1.403       .  A
C1583      H1590   1.081       .  S
C1584      C1585   1.421       .  A
C1585      C1586   1.415       .  A
C1585      N1592   1.436       .  S
C1586      C1587   1.416       .  A
C1586      H1591   1.077       .  S
C1587      C2101   1.570       .  S
C1587      C1588   1.437       .  A
C1588      N1589   1.444       .  S
N1589      H1593   1.044       .  S
N1589      H1594   1.036       .  S
N1592      H1595   1.046       .  S
N1592      H1596   1.046       .  S
C1597      C1934   1.417       .  A
C1597      C1602   1.412       .  A
C1597      H1604   1.082       .  S
C1598      C1933   1.417   1_554  A
C1598      C1599   1.432       .  A
C1599      C1600   1.409       .  A
C1599      N1606   1.432       .  S
C1600      C1601   1.414   1_554  A
C1600      H1605   1.081       .  S
C1601      C1938   1.426       .  A
C1602      C1937   1.426       .  A
C1602      N1603   1.438       .  S
N1603      H1607   1.046       .  S
N1603      H1608   1.044       .  S
N1606      H1609   1.043   1_655  S
N1606      H1610   1.041       .  S
C1611      C1948   1.418   1_554  A
C1611      C1616   1.414       .  A
C1611      H1618   1.083       .  S
C1612      C1684   1.582       .  S
C1612      C1947   1.418       .  A
C1612      C1613   1.439       .  A
C1613      C1614   1.398       .  A
C1613      N1620   1.431       .  S
C1614      C1615   1.407       .  A
C1614      H1619   1.080       .  S
C1615      C1683   1.565       .  S
C1615      C1952   1.419       .  A
C1616      C1951   1.419       .  A
C1616      N1617   1.436       .  S
N1617      H1621   1.046       .  S
N1617      H1622   1.043       .  S
N1620      H1623   1.044       .  S
N1620      H1624   1.040       .  S
C1625      C1626   1.413   1_556  A
C1625      C1630   1.411       .  A
C1625      H1632   1.081       .  S
C1626      C1963   1.417       .  A
C1627      C1962   1.417       .  A
C1627      C1628   1.401       .  A
C1627      N1634   1.433       .  S
C1628      C1965   1.413       .  A
C1628      H1633   1.083       .  S
C1629      C1964   1.413       .  A
C1629      C1630   1.424   1_554  A
C1630      N1631   1.438       .  S
N1631      H1635   1.045       .  S
N1631      H1636   1.045       .  S
N1634      H1637   1.046       .  S
N1634      H1638   1.045       .  S
C1639      C1640   1.412   1_554  A
C1639      C1644   1.406       .  A
C1639      H1646   1.079       .  S
C1640      C1977   1.430       .  A
C1641      C1976   1.430       .  A
C1641      C1642   1.405       .  A
C1641      N1648   1.441       .  S
C1642      C1979   1.411       .  A
C1642      H1647   1.082       .  S
C1643      C2018   1.563       .  S
C1643      C1978   1.411   1_554  A
C1643      C1644   1.429       .  A
C1644      N1645   1.438       .  S
N1645      H1649   1.045       .  S
N1645      H2322   1.041       .  S
N1648      H1651   1.044       .  S
N1648      H1652   1.046       .  S
H1650      N2317   1.041   1_545  S
C1653      C1654   1.417       .  A
C1653      C1658   1.412       .  A
C1654      C1991   1.430       .  A
C1655      C1990   1.430       .  A
C1655      C1656   1.404       .  A
C1655      N1662   1.440       .  S
C1656      C1993   1.408       .  A
C1656      H1661   1.082       .  S
C1657      C2017   1.562   1_554  S
C1657      C1992   1.408       .  A
C1657      C1658   1.414       .  A
C1658      N1659   1.437       .  S
N1659      H1663   1.046       .  S
N1659      H1664   1.045       .  S
N1662      H1665   1.042       .  S
N1662      H1666   1.046       .  S
C1667      C1668   1.417       .  A
C1667      C1672   1.415       .  A
C1667      H1674   1.079       .  S
C1668      C1686   1.570       .  S
C1668      C2005   1.427       .  A
C1669      C2004   1.427       .  A
C1669      C1670   1.399       .  A
C1669      N1676   1.435       .  S
C1670      C2007   1.409       .  A
C1670      H1675   1.080       .  S
C1671      C1681   1.570       .  S
C1671      C2006   1.409       .  A
C1671      C1672   1.420       .  A
C1672      N1673   1.437       .  S
N1673      H1677   1.046       .  S
N1673      H2350   1.045       .  S
N1676      H1679   1.046       .  S
N1676      H1680   1.046   1_556  S
H1678      N2345   1.045   1_545  S
C1681      C2063   1.523       .  S
C1681      C1772   1.536       .  S
C1681      C2665   1.562       .  S
C1682      C2457   1.529   1_545  S
C1682      C1962   1.559       .  S
C1682      C2651   1.563   1_545  S
C1683      C1798   1.531       .  S
C1683      C1965   1.558       .  S
C1684      C1813   1.521       .  S
C1685      C1837   1.528       .  S
C1685      C1976   1.566       .  S
C1686      C1826   1.545       .  S
C1686      C1937   1.582       .  S
O1687      C1690   1.264       .  A
O1687     Cd1692   2.470       .  S
C1688      O1697   1.264       .  A
C1688      O1693   1.270       .  A
O1689      C1695   1.261       .  A
C1690      C1769   1.531       .  S
C1691      O1694   1.271       .  A
C1691      C1704   1.469       .  S
Cd1692     O1697   2.460       .  S
Cd1692     O1693   2.458       .  S
Cd1692     O1694   2.547       .  S
C1695      O1699   1.257       .  A
C1695      C1717   1.442       .  S
O1700      C1703   1.265       .  A
O1700     Cd1705   2.468       .  S
C1701      C1768   1.530       .  S
C1701      O1710   1.263       .  A
C1701      O1706   1.270       .  A
O1702      C1708   1.261       .  A
C1703      O1711   1.269       .  A
C1704      O1707   1.270       .  A
Cd1705     O1711   2.497       .  S
Cd1705     O1710   2.459       .  S
Cd1705     O1706   2.483       .  S
Cd1705     O1707   2.547       .  S
C1708      O1712   1.261       .  A
C1708      C1734   1.440       .  S
O1713      C1716   1.262       .  A
O1713     Cd1718   2.465       .  S
C1714      O1723   1.263       .  A
C1714      O1719   1.272       .  A
O1715      C1721   1.260       .  A
O1715     Cd1718   2.374       .  S
C1716      C1770   1.532       .  S
C1716      O1724   1.268       .  A
C1717      O1722   1.260       .  A
C1717      O1720   1.262       .  A
Cd1718     O1725   2.545       .  S
Cd1718     O1724   2.499       .  S
Cd1718     O1723   2.443       .  S
Cd1718     O1719   2.459       .  S
Cd1718     O1722   2.424       .  S
Cd1718     O1720   2.407       .  S
C1721      O1725   1.271       .  A
C1721      C1760   1.466       .  S
O1726      C2401   1.271       .  A
O1726     Cd2403   2.464       .  S
C1727      C2017   1.523       .  S
C1727      O1736   1.269       .  A
C1727      O2404   1.262       .  A
O1728      C1734   1.262       .  A
O1728     Cd1731   2.410       .  S
C1729      C1765   1.525       .  S
C1729      O2398   1.271   1_545  A
C1729      O1737   1.264       .  A
C1730      O1735   1.259       .  A
C1730      O2405   1.270   1_545  A
C1730      C1743   1.463       .  S
Cd1731     O2398   2.464   1_545  S
Cd1731     O1738   2.412       .  S
Cd1731     O1737   2.441       .  S
Cd1731     O1736   2.483       .  S
Cd1731     O2404   2.444       .  S
Cd1731     O1735   2.362       .  S
Cd1731     O2405   2.541   1_545  S
O1732      C2399   1.262       .  A
O1732     Cd2403   2.444       .  S
O1733      C2402   1.270       .  A
O1733     Cd2403   2.541       .  S
C1734      O1738   1.262       .  A
O1739      C2414   1.265       .  A
O1739     Cd2416   2.449       .  S
C1740      C1766   1.526   1_545  S
C1740      O1749   1.264       .  A
C1740      O2417   1.271   1_545  A
O1741      C1747   1.262       .  A
O1741     Cd1744   2.421       .  S
C1742      O2411   1.265       .  A
C1742      O1750   1.269       .  A
C1743      O1748   1.260       .  A
C1743      O2418   1.270   1_545  A
Cd1744     O2411   2.449       .  S
Cd1744     O1751   2.414       .  S
Cd1744     O1750   2.478       .  S
Cd1744     O1749   2.445       .  S
Cd1744     O2417   2.467   1_545  S
Cd1744     O1748   2.363       .  S
Cd1744     O2418   2.540   1_545  S
O1745      C2412   1.271       .  A
O1745     Cd2416   2.467       .  S
O1746      C2415   1.270       .  A
O1746     Cd2416   2.540       .  S
C1747      O1751   1.260       .  A
C1747      C1756   1.442       .  S
O1752      C1755   1.264       .  A
O1752     Cd1757   2.430       .  S
C1753      C1767   1.531       .  S
C1753      O1762   1.263       .  A
C1753      O1758   1.271       .  A
O1754      C1760   1.260       .  A
O1754     Cd1757   2.376       .  S
C1755      O1763   1.268       .  A
C1756      O1761   1.261       .  A
C1756      O1759   1.263       .  A
Cd1757     O1764   2.544       .  S
Cd1757     O1763   2.491       .  S
Cd1757     O1762   2.436       .  S
Cd1757     O1758   2.493       .  S
Cd1757     O1761   2.410       .  S
Cd1757     O1759   2.423       .  S
C1760      O1764   1.270       .  A
C1765      C2446   1.531   1_545  S
C1765      C1906   1.578       .  S
C1765      C2595   1.570   1_545  S
C1766      C1787   1.525       .  S
C1766      C1878   1.578   1_565  S
C1766      C2564   1.571       .  S
C1767      C1800   1.531       .  S
C1767      C1864   1.563       .  S
C1767      C1881   1.563       .  S
C1768      C1811   1.524       .  S
C1768      C1867   1.566       .  S
C1769      C1839   1.531       .  S
C1769      C1895   1.570       .  S
C1770      C1824   1.533       .  S
C1770      C1850   1.559       .  S
C1770      C1920   1.571       .  S
O1771      C2446   1.264       .  A
O1771     Cd2448   2.443       .  S
C1772      O1781   1.262       .  A
C1772      O2449   1.271       .  A
O1773      C1779   1.263       .  A
O1773     Cd1776   2.478       .  S
C1774      C2437   1.531       .  S
C1774      O2443   1.264       .  A
C1774      O1782   1.271       .  A
C1775      O1780   1.262       .  A
C1775      O2450   1.270       .  A
C1775      C1792   1.470       .  S
Cd1776     O2443   2.443       .  S
Cd1776     O1783   2.368       .  S
Cd1776     O1782   2.501       .  S
Cd1776     O1781   2.413       .  S
Cd1776     O2449   2.496       .  S
Cd1776     O1780   2.402       .  S
Cd1776     O2450   2.534       .  S
O1777      C2444   1.271   1_545  A
O1777     Cd2448   2.496   1_545  S
O1778      C2447   1.270   1_545  A
O1778     Cd2448   2.534   1_545  S
C1779      O1783   1.258       .  A
C1779      C1831   1.446       .  S
O1784      C1787   1.264       .  A
O1784     Cd2461   2.445       .  S
C1785      C2354   1.529       .  S
C1785      O1794   1.265       .  A
C1785      O2462   1.268       .  A
O1786      C1792   1.261       .  A
O1786     Cd1789   2.403       .  S
C1787      O2467   1.270   1_565  A
C1788      O1793   1.263       .  A
C1788      O1791   1.261       .  A
C1788      C1844   1.445       .  S
Cd1789     O2456   2.445       .  S
Cd1789     O2468   2.540       .  S
Cd1789     O1795   2.503       .  S
Cd1789     O1794   2.436       .  S
Cd1789     O2462   2.499       .  S
Cd1789     O1793   2.440       .  S
Cd1789     O1791   2.400       .  S
O1790      C2457   1.268   1_545  A
O1790     Cd2461   2.499   1_545  S
C1792      O2468   1.270       .  A
O1795      C2459   1.270       .  A
O1796      C2464   1.270   1_545  A
O1796     Cd2461   2.540   1_545  S
O1797      C1800   1.263       .  A
O1797     Cd1802   2.457       .  S
C1798      O1807   1.264       .  A
C1798      O1803   1.271       .  A
O1799      C1805   1.262       .  A
O1799     Cd1802   2.406       .  S
C1800      O1808   1.270       .  A
C1801      O1806   1.260       .  A
C1801      O1804   1.270       .  A
C1801      C1827   1.466       .  S
Cd1802     O1809   2.431       .  S
Cd1802     O1808   2.490       .  S
Cd1802     O1807   2.443       .  S
Cd1802     O1803   2.479       .  S
Cd1802     O1806   2.381       .  S
Cd1802     O1804   2.542       .  S
C1805      O1809   1.263       .  A
C1805      C1818   1.443       .  S
O1810      C1813   1.269       .  A
O1810     Cd1815   2.457       .  S
C1811      O1820   1.271       .  A
C1811      O1816   1.265       .  A
O1812      C1818   1.262       .  A
O1812     Cd1815   2.403       .  S
C1813      O1821   1.263       .  A
C1814      O1819   1.261       .  A
C1814      O1817   1.269       .  A
C1814      C1840   1.461       .  S
Cd1815     O1822   2.426       .  S
Cd1815     O1821   2.450       .  S
Cd1815     O1820   2.495       .  S
Cd1815     O1816   2.435       .  S
Cd1815     O1819   2.376       .  S
Cd1815     O1817   2.523       .  S
C1818      O1822   1.263       .  A
O1823      C1826   1.272       .  A
O1823     Cd1828   2.536       .  S
C1824      O1833   1.262       .  A
C1824      O1829   1.272       .  A
O1825      C1831   1.266       .  A
O1825     Cd1828   2.464       .  S
C1826      O1834   1.258       .  A
C1827      O1832   1.258       .  A
C1827      O1830   1.267       .  A
Cd1828     O1835   2.382       .  S
Cd1828     O1834   2.403       .  S
Cd1828     O1833   2.432       .  S
Cd1828     O1829   2.481       .  S
Cd1828     O1832   2.392       .  S
Cd1828     O1830   2.555       .  S
C1831      O1835   1.261       .  A
O1836      C1839   1.268       .  A
O1836     Cd1841   2.458       .  S
C1837      O1846   1.262       .  A
C1837      O1842   1.272       .  A
O1838      C1844   1.266       .  A
O1838     Cd1841   2.425       .  S
C1839      O1847   1.262       .  A
C1840      O1845   1.259       .  A
C1840      O1843   1.268       .  A
Cd1841     O1848   2.405       .  S
Cd1841     O1847   2.451       .  S
Cd1841     O1846   2.404       .  S
Cd1841     O1842   2.532       .  S
Cd1841     O1845   2.381       .  S
Cd1841     O1843   2.530       .  S
C1844      O1848   1.264       .  A
C1849      C1850   1.409       .  A
C1849      C1854   1.395       .  A
C1849      H1856   1.080       .  S
C1850      C1851   1.431       .  A
C1851      C1852   1.415       .  A
C1851      N1858   1.438       .  S
C1852      C1853   1.412       .  A
C1852      H1857   1.083   1_655  S
C1853      C1854   1.417       .  A
C1854      N1855   1.439       .  S
N1855      H1859   1.044       .  S
N1855      H1860   1.046       .  S
N1858      H1861   1.042       .  S
N1858      H1862   1.045       .  S
C1863      C1864   1.408       .  A
C1863      C1868   1.399       .  A
C1863      H1870   1.084       .  S
C1864      C1865   1.425       .  A
C1865      C1866   1.412       .  A
C1865      N1872   1.437       .  S
C1866      C1867   1.415       .  A
C1866      H1871   1.079       .  S
C1867      C1868   1.434       .  A
C1868      N1869   1.441       .  S
N1869      H1873   1.046       .  S
N1869      H1874   1.037       .  S
N1872      H1875   1.046       .  S
N1872      H1876   1.045       .  S
C1877      C1878   1.417       .  A
C1877      C1882   1.411       .  A
C1877      H1884   1.084       .  S
C1878      C1879   1.432       .  A
C1879      C1880   1.405       .  A
C1879      N1886   1.431       .  S
C1880      C1881   1.408       .  A
C1880      H1885   1.080       .  S
C1881      C1882   1.418       .  A
C1882      N1883   1.432       .  S
N1883      H1887   1.046       .  S
N1883      H1888   1.046       .  S
N1886      H1889   1.046       .  S
N1886      H1890   1.046       .  S
C1891      C1892   1.417       .  A
C1891      C1896   1.416       .  A
C1891      H1898   1.077       .  S
C1892      C2438   1.571       .  S
C1892      C1893   1.436       .  A
C1893      C1894   1.401       .  A
C1893      N1900   1.443       .  S
C1894      C1895   1.408       .  A
C1894      H1899   1.081       .  S
C1895      C1896   1.421       .  A
C1896      N1897   1.436       .  S
N1897      H1901   1.046       .  S
N1897      H1902   1.046       .  S
N1900      H1903   1.036       .  S
N1900      H1904   1.044       .  S
C1905      C1906   1.415       .  A
C1905      C1910   1.407       .  A
C1905      H1912   1.079       .  S
C1906      C1907   1.422       .  A
C1907      C1908   1.413       .  A
C1907      N1914   1.432       .  S
C1908      C1909   1.416       .  A
C1909      C1910   1.427       .  A
C1910      N1911   1.431       .  S
N1911      H1915   1.046       .  S
N1911      H1916   1.046       .  S
N1914      H1917   1.045       .  S
N1914      H1918   1.046       .  S
C1919      C1920   1.408       .  A
C1919      C1924   1.403       .  A
C1919      H1926   1.081       .  S
C1920      C1921   1.421       .  A
C1921      C1922   1.415       .  A
C1921      N1928   1.436       .  S
C1922      C1923   1.416       .  A
C1922      H1927   1.077       .  S
C1923      C2437   1.570       .  S
C1923      C1924   1.437       .  A
C1924      N1925   1.444       .  S
N1925      H1929   1.044       .  S
N1925      H1930   1.036       .  S
N1928      H1931   1.046       .  S
N1928      H1932   1.046       .  S
C1933      C1938   1.412       .  A
C1933      H1940   1.082       .  S
C1934      C1935   1.432       .  A
C1935      C1936   1.409       .  A
C1935      N1942   1.432       .  S
C1936      C1937   1.414       .  A
C1936      H1941   1.081       .  S
C1938      N1939   1.438       .  S
N1939      H1943   1.046       .  S
N1939      H1944   1.044       .  S
N1942      H1945   1.043   1_655  S
N1942      H1946   1.041       .  S
C1947      C1952   1.414       .  A
C1947      H1954   1.083       .  S
C1948      C1949   1.439       .  A
C1949      C1950   1.398       .  A
C1949      N1956   1.431       .  S
C1950      C1951   1.407   1_556  A
C1950      H1955   1.080       .  S
C1952      N1953   1.436       .  S
N1953      H1957   1.046       .  S
N1953      H1958   1.043       .  S
N1956      H1959   1.044       .  S
N1956      H1960   1.040       .  S
C1961      C1962   1.413       .  A
C1961      C1966   1.411       .  A
C1961      H1968   1.081       .  S
C1963      C1964   1.401       .  A
C1963      N1970   1.433       .  S
C1964      H1969   1.083       .  S
C1965      C1966   1.424       .  A
C1966      N1967   1.438       .  S
N1967      H1971   1.045       .  S
N1967      H1972   1.045       .  S
N1970      H1973   1.046       .  S
N1970      H1974   1.045       .  S
C1975      C1976   1.412       .  A
C1975      C1980   1.406       .  A
C1975      H1982   1.079       .  S
C1977      C1978   1.405       .  A
C1977      N1984   1.441       .  S
C1978      H1983   1.082       .  S
C1979      C2354   1.563       .  S
C1979      C1980   1.429       .  A
C1980      N1981   1.438       .  S
N1981      H1985   1.045       .  S
N1981      H2658   1.041       .  S
N1984      H1987   1.044       .  S
N1984      H1988   1.046       .  S
H1986      N2653   1.041   1_545  S
C1989      C1990   1.417       .  A
C1989      C1994   1.412       .  A
C1991      C1992   1.404       .  A
C1991      N1998   1.440       .  S
C1992      H1997   1.082   1_554  S
C1993      C2353   1.562       .  S
C1993      C1994   1.414       .  A
C1994      N1995   1.437       .  S
N1995      H1999   1.046       .  S
N1995      H2000   1.045       .  S
N1998      H2001   1.042       .  S
N1998      H2002   1.046       .  S
C2003      C2004   1.417       .  A
C2003      C2008   1.415       .  A
C2003      H2010   1.079       .  S
C2005      C2006   1.399       .  A
C2005      N2012   1.435       .  S
C2006      H2011   1.080       .  S
C2007      C2008   1.420       .  A
C2008      N2009   1.437       .  S
N2009      H2013   1.046       .  S
N2009      H2686   1.045       .  S
N2012      H2015   1.046       .  S
N2012      H2016   1.046       .  S
H2014      N2681   1.045   1_545  S
C2017      C2108   1.536   1_546  S
C2017      C2679   1.570   1_545  S
C2018      C2414   1.525   1_554  S
C2018      C2298   1.559       .  S
C2019      C2427   1.525   1_554  S
C2019      C2134   1.531       .  S
C2019      C2623   1.565       .  S
C2019      C2301   1.558       .  S
C2020      C2375   1.527   1_554  S
C2020      C2149   1.521       .  S
C2020      C2620   1.582   1_554  S
C2021      C2360   1.535   1_554  S
C2021      C2173   1.528       .  S
C2021      C2312   1.566   1_554  S
C2022      C2386   1.523       .  S
C2022      C2162   1.545   1_556  S
C2022      C2273   1.582       .  S
C2022      C2676   1.570       .  S
O2023      C2026   1.264       .  A
O2023     Cd2028   2.470       .  S
C2024      C2357   1.535       .  S
C2024      O2033   1.264       .  A
C2024      O2029   1.270       .  A
O2025      C2031   1.261       .  A
C2026      C2105   1.531       .  S
C2027      O2030   1.271       .  A
C2027      C2040   1.469       .  S
Cd2028     O2033   2.460       .  S
Cd2028     O2029   2.458       .  S
Cd2028     O2030   2.547       .  S
C2031      O2035   1.257       .  A
C2031      C2053   1.442       .  S
O2036      C2039   1.265       .  A
O2036     Cd2041   2.468       .  S
C2037      C2104   1.530       .  S
C2037      O2046   1.263       .  A
C2037      O2042   1.270       .  A
O2038      C2044   1.261       .  A
C2039      C2356   1.527       .  S
C2039      O2047   1.269       .  A
C2040      O2043   1.270       .  A
Cd2041     O2047   2.497       .  S
Cd2041     O2046   2.459       .  S
Cd2041     O2042   2.483       .  S
Cd2041     O2043   2.547       .  S
C2044      O2048   1.261       .  A
C2044      C2070   1.440       .  S
O2049      C2052   1.262       .  A
O2049     Cd2054   2.465       .  S
C2050      C2358   1.523       .  S
C2050      O2059   1.263       .  A
C2050      O2055   1.272       .  A
O2051      C2057   1.260       .  A
O2051     Cd2054   2.374       .  S
C2052      C2106   1.532       .  S
C2052      O2060   1.268       .  A
C2053      O2058   1.260       .  A
C2053      O2056   1.262       .  A
Cd2054     O2061   2.545       .  S
Cd2054     O2060   2.499       .  S
Cd2054     O2059   2.443       .  S
Cd2054     O2055   2.459       .  S
Cd2054     O2058   2.424       .  S
Cd2054     O2056   2.407       .  S
C2057      O2061   1.271       .  A
C2057      C2096   1.466       .  S
C2063      O2072   1.269       .  A
O2064      C2070   1.262       .  A
O2064     Cd2067   2.410       .  S
C2065      C2101   1.525       .  S
C2065      O2073   1.264       .  A
C2066      O2071   1.259       .  A
C2066      C2079   1.463       .  S
Cd2067     O2074   2.412       .  S
Cd2067     O2073   2.441       .  S
Cd2067     O2072   2.483       .  S
Cd2067     O2071   2.362       .  S
C2070      O2074   1.262       .  A
C2076      C2102   1.526       .  S
C2076      O2085   1.264       .  A
O2077      C2083   1.262       .  A
O2077     Cd2080   2.421       .  S
C2078      C2354   1.525       .  S
C2078      O2086   1.269       .  A
C2079      O2084   1.260       .  A
Cd2080     O2087   2.414       .  S
Cd2080     O2086   2.478       .  S
Cd2080     O2085   2.445       .  S
Cd2080     O2084   2.363       .  S
C2083      O2087   1.260       .  A
C2083      C2092   1.442       .  S
O2088      C2091   1.264       .  A
O2088     Cd2093   2.430       .  S
C2089      C2103   1.531       .  S
C2089      O2098   1.263       .  A
C2089      O2094   1.271       .  A
O2090      C2096   1.260       .  A
O2090     Cd2093   2.376       .  S
C2091      C2355   1.525       .  S
C2091      O2099   1.268       .  A
C2092      O2097   1.261       .  A
C2092      O2095   1.263       .  A
Cd2093     O2100   2.544       .  S
Cd2093     O2099   2.491       .  S
Cd2093     O2098   2.436       .  S
Cd2093     O2094   2.493       .  S
Cd2093     O2097   2.410       .  S
Cd2093     O2095   2.423       .  S
C2096      O2100   1.270       .  A
C2101      C2242   1.578       .  S
C2102      C2123   1.525       .  S
C2102      C2214   1.578       .  S
C2103      C2136   1.531       .  S
C2103      C2200   1.563       .  S
C2103      C2217   1.563       .  S
C2104      C2147   1.524       .  S
C2104      C2203   1.566       .  S
C2105      C2175   1.531       .  S
C2105      C2231   1.570       .  S
C2106      C2160   1.533       .  S
C2106      C2186   1.559       .  S
C2106      C2256   1.571       .  S
C2108      O2117   1.262       .  A
O2109      C2115   1.263       .  A
O2109     Cd2112   2.478       .  S
C2110      O2118   1.271   1_565  A
C2111      O2116   1.262       .  A
C2111      C2128   1.470       .  S
Cd2112     O2119   2.368       .  S
Cd2112     O2118   2.501   1_565  S
Cd2112     O2117   2.413       .  S
Cd2112     O2116   2.402       .  S
C2115      O2119   1.258       .  A
C2115      C2167   1.446       .  S
O2120      C2123   1.264       .  A
C2121      O2130   1.265       .  A
O2122      C2128   1.261       .  A
O2122     Cd2125   2.403       .  S
C2124      O2129   1.263       .  A
C2124      O2127   1.261       .  A
C2124      C2180   1.445       .  S
Cd2125     O2131   2.503   1_565  S
Cd2125     O2130   2.436       .  S
Cd2125     O2129   2.440       .  S
Cd2125     O2127   2.400       .  S
O2133      C2136   1.263       .  A
O2133     Cd2138   2.457       .  S
C2134      O2143   1.264       .  A
C2134      O2139   1.271       .  A
O2135      C2141   1.262       .  A
O2135     Cd2138   2.406       .  S
C2136      O2144   1.270       .  A
C2137      O2142   1.260       .  A
C2137      O2140   1.270       .  A
C2137      C2163   1.466       .  S
Cd2138     O2145   2.431       .  S
Cd2138     O2144   2.490       .  S
Cd2138     O2143   2.443       .  S
Cd2138     O2139   2.479       .  S
Cd2138     O2142   2.381       .  S
Cd2138     O2140   2.542       .  S
C2141      O2145   1.263       .  A
C2141      C2154   1.443       .  S
O2146      C2149   1.269       .  A
O2146     Cd2151   2.457       .  S
C2147      O2156   1.271       .  A
C2147      O2152   1.265       .  A
O2148      C2154   1.262       .  A
O2148     Cd2151   2.403       .  S
C2149      O2157   1.263       .  A
C2150      O2155   1.261       .  A
C2150      O2153   1.269       .  A
C2150      C2176   1.461       .  S
Cd2151     O2158   2.426       .  S
Cd2151     O2157   2.450       .  S
Cd2151     O2156   2.495       .  S
Cd2151     O2152   2.435       .  S
Cd2151     O2155   2.376       .  S
Cd2151     O2153   2.523       .  S
C2154      O2158   1.263       .  A
O2159      C2162   1.272       .  A
O2159     Cd2164   2.536       .  S
C2160      O2169   1.262       .  A
C2160      O2165   1.272       .  A
O2161      C2167   1.266       .  A
O2161     Cd2164   2.464       .  S
C2162      O2170   1.258       .  A
C2163      O2168   1.258       .  A
C2163      O2166   1.267       .  A
Cd2164     O2171   2.382       .  S
Cd2164     O2170   2.403       .  S
Cd2164     O2169   2.432       .  S
Cd2164     O2165   2.481       .  S
Cd2164     O2168   2.392       .  S
Cd2164     O2166   2.555       .  S
C2167      O2171   1.261       .  A
O2172      C2175   1.268       .  A
O2172     Cd2177   2.458       .  S
C2173      O2182   1.262       .  A
C2173      O2178   1.272       .  A
O2174      C2180   1.266       .  A
O2174     Cd2177   2.425       .  S
C2175      O2183   1.262       .  A
C2176      O2181   1.259       .  A
C2176      O2179   1.268       .  A
Cd2177     O2184   2.405       .  S
Cd2177     O2183   2.451       .  S
Cd2177     O2182   2.404       .  S
Cd2177     O2178   2.532       .  S
Cd2177     O2181   2.381       .  S
Cd2177     O2179   2.530       .  S
C2180      O2184   1.264       .  A
C2185      C2186   1.409       .  A
C2185      C2190   1.395       .  A
C2185      H2192   1.080       .  S
C2186      C2187   1.431       .  A
C2187      C2188   1.415       .  A
C2187      N2194   1.438       .  S
C2188      C2189   1.412       .  A
C2188      H2193   1.083   1_655  S
C2189      C2190   1.417       .  A
C2190      N2191   1.439       .  S
N2191      H2195   1.044       .  S
N2191      H2196   1.046       .  S
N2194      H2197   1.042       .  S
N2194      H2198   1.045       .  S
C2199      C2200   1.408       .  A
C2199      C2204   1.399       .  A
C2199      H2206   1.084       .  S
C2200      C2201   1.425       .  A
C2201      C2202   1.412       .  A
C2201      N2208   1.437       .  S
C2202      C2203   1.415       .  A
C2202      H2207   1.079       .  S
C2203      C2204   1.434       .  A
C2204      N2205   1.441       .  S
N2205      H2209   1.046       .  S
N2205      H2210   1.037       .  S
N2208      H2211   1.046       .  S
N2208      H2212   1.045       .  S
C2213      C2214   1.417       .  A
C2213      C2218   1.411       .  A
C2213      H2220   1.084       .  S
C2214      C2215   1.432       .  A
C2215      C2216   1.405       .  A
C2215      N2222   1.431       .  S
C2216      C2217   1.408       .  A
C2216      H2221   1.080       .  S
C2217      C2218   1.418       .  A
C2218      N2219   1.432       .  S
N2219      H2223   1.046       .  S
N2219      H2224   1.046       .  S
N2222      H2225   1.046       .  S
N2222      H2226   1.046       .  S
C2227      C2228   1.417       .  A
C2227      C2232   1.416       .  A
C2227      H2234   1.077       .  S
C2228      C2229   1.436       .  A
C2229      C2230   1.401       .  A
C2229      N2236   1.443       .  S
C2230      C2231   1.408       .  A
C2230      H2235   1.081       .  S
C2231      C2232   1.421       .  A
C2232      N2233   1.436       .  S
N2233      H2237   1.046       .  S
N2233      H2238   1.046       .  S
N2236      H2239   1.036       .  S
N2236      H2240   1.044       .  S
C2241      C2242   1.415       .  A
C2241      C2246   1.407       .  A
C2241      H2248   1.079       .  S
C2242      C2243   1.422       .  A
C2243      C2244   1.413       .  A
C2243      N2250   1.432       .  S
C2244      C2245   1.416       .  A
C2245      C2246   1.427       .  A
C2246      N2247   1.431       .  S
N2247      H2251   1.046       .  S
N2247      H2252   1.046       .  S
N2250      H2253   1.045       .  S
N2250      H2254   1.046       .  S
C2255      C2256   1.408       .  A
C2255      C2260   1.403       .  A
C2255      H2262   1.081       .  S
C2256      C2257   1.421       .  A
C2257      C2258   1.415       .  A
C2257      N2264   1.436       .  S
C2258      C2259   1.416       .  A
C2258      H2263   1.077       .  S
C2259      C2260   1.437       .  A
C2260      N2261   1.444       .  S
N2261      H2265   1.044       .  S
N2261      H2266   1.036       .  S
N2264      H2267   1.046       .  S
N2264      H2268   1.046       .  S
C2269      C2606   1.417       .  A
C2269      C2274   1.412       .  A
C2269      H2276   1.082       .  S
C2270      C2605   1.417   1_554  A
C2270      C2271   1.432       .  A
C2271      C2272   1.409       .  A
C2271      N2278   1.432       .  S
C2272      C2273   1.414   1_554  A
C2272      H2277   1.081       .  S
C2273      C2610   1.426       .  A
C2274      C2609   1.426       .  A
C2274      N2275   1.438       .  S
N2275      H2279   1.046       .  S
N2275      H2280   1.044       .  S
N2278      H2281   1.043   1_655  S
N2278      H2282   1.041       .  S
C2283      C2620   1.418   1_554  A
C2283      C2288   1.414       .  A
C2283      H2290   1.083       .  S
C2284      C2356   1.582       .  S
C2284      C2619   1.418       .  A
C2284      C2285   1.439       .  A
C2285      C2286   1.398       .  A
C2285      N2292   1.431       .  S
C2286      C2287   1.407       .  A
C2286      H2291   1.080       .  S
C2287      C2355   1.565       .  S
C2287      C2624   1.419       .  A
C2288      C2623   1.419       .  A
C2288      N2289   1.436       .  S
N2289      H2293   1.046       .  S
N2289      H2294   1.043       .  S
N2292      H2295   1.044       .  S
N2292      H2296   1.040       .  S
C2297      C2298   1.413   1_556  A
C2297      C2302   1.411       .  A
C2297      H2304   1.081       .  S
C2298      C2635   1.417       .  A
C2299      C2634   1.417       .  A
C2299      C2300   1.401       .  A
C2299      N2306   1.433       .  S
C2300      C2637   1.413       .  A
C2300      H2305   1.083       .  S
C2301      C2636   1.413       .  A
C2301      C2302   1.424   1_554  A
C2302      N2303   1.438       .  S
N2303      H2307   1.045       .  S
N2303      H2308   1.045       .  S
N2306      H2309   1.046       .  S
N2306      H2310   1.045       .  S
C2311      C2312   1.412   1_554  A
C2311      C2316   1.406       .  A
C2311      H2318   1.079       .  S
C2312      C2649   1.430       .  A
C2313      C2648   1.430       .  A
C2313      C2314   1.405       .  A
C2313      N2320   1.441       .  S
C2314      C2651   1.411       .  A
C2314      H2319   1.082       .  S
C2315      C2650   1.411   1_554  A
C2315      C2316   1.429       .  A
C2316      N2317   1.438       .  S
N2317      H2321   1.045   1_565  S
N2320      H2323   1.044       .  S
N2320      H2324   1.046       .  S
C2325      C2326   1.417       .  A
C2325      C2330   1.412       .  A
C2326      C2663   1.430       .  A
C2327      C2662   1.430       .  A
C2327      C2328   1.404       .  A
C2327      N2334   1.440       .  S
C2328      C2665   1.408       .  A
C2328      H2333   1.082       .  S
C2329      C2664   1.408       .  A
C2329      C2330   1.414       .  A
C2330      N2331   1.437       .  S
N2331      H2335   1.046       .  S
N2331      H2336   1.045       .  S
N2334      H2337   1.042       .  S
N2334      H2338   1.046       .  S
C2339      C2340   1.417       .  A
C2339      C2344   1.415       .  A
C2339      H2346   1.079       .  S
C2340      C2358   1.570       .  S
C2340      C2677   1.427       .  A
C2341      C2676   1.427       .  A
C2341      C2342   1.399       .  A
C2341      N2348   1.435       .  S
C2342      C2679   1.409       .  A
C2342      H2347   1.080       .  S
C2343      C2353   1.570   1_565  S
C2343      C2678   1.409       .  A
C2343      C2344   1.420       .  A
C2344      N2345   1.437       .  S
N2345      H2349   1.046       .  S
N2348      H2351   1.046       .  S
N2348      H2352   1.046   1_556  S
C2353      C2444   1.536   1_545  S
C2354      C2634   1.559       .  S
C2355      C2470   1.531       .  S
C2355      C2637   1.558       .  S
C2356      C2485   1.521       .  S
C2357      C2509   1.528       .  S
C2357      C2648   1.566       .  S
C2358      C2498   1.545       .  S
C2358      C2609   1.582       .  S
O2359      C2362   1.264       .  A
O2359     Cd2364   2.470       .  S
C2360      O2369   1.264       .  A
C2360      O2365   1.270       .  A
O2361      C2367   1.261       .  A
C2362      C2441   1.531       .  S
C2363      O2366   1.271       .  A
C2363      C2376   1.469       .  S
Cd2364     O2369   2.460       .  S
Cd2364     O2365   2.458       .  S
Cd2364     O2366   2.547       .  S
C2367      O2371   1.257       .  A
C2367      C2389   1.442       .  S
O2372      C2375   1.265       .  A
O2372     Cd2377   2.468       .  S
C2373      C2440   1.530       .  S
C2373      O2382   1.263       .  A
C2373      O2378   1.270       .  A
O2374      C2380   1.261       .  A
C2375      O2383   1.269       .  A
C2376      O2379   1.270       .  A
Cd2377     O2383   2.497       .  S
Cd2377     O2382   2.459       .  S
Cd2377     O2378   2.483       .  S
Cd2377     O2379   2.547       .  S
C2380      O2384   1.261       .  A
C2380      C2406   1.440       .  S
O2385      C2388   1.262       .  A
O2385     Cd2390   2.465       .  S
C2386      O2395   1.263       .  A
C2386      O2391   1.272       .  A
O2387      C2393   1.260       .  A
O2387     Cd2390   2.374       .  S
C2388      C2442   1.532       .  S
C2388      O2396   1.268       .  A
C2389      O2394   1.260       .  A
C2389      O2392   1.262       .  A
Cd2390     O2397   2.545       .  S
Cd2390     O2396   2.499       .  S
Cd2390     O2395   2.443       .  S
Cd2390     O2391   2.459       .  S
Cd2390     O2394   2.424       .  S
Cd2390     O2392   2.407       .  S
C2393      O2397   1.271       .  A
C2393      C2432   1.466       .  S
C2399      O2408   1.269       .  A
O2400      C2406   1.262       .  A
O2400     Cd2403   2.410       .  S
C2401      C2437   1.525       .  S
C2401      O2409   1.264       .  A
C2402      O2407   1.259       .  A
C2402      C2415   1.463       .  S
Cd2403     O2410   2.412       .  S
Cd2403     O2409   2.441       .  S
Cd2403     O2408   2.483       .  S
Cd2403     O2407   2.362       .  S
C2406      O2410   1.262       .  A
C2412      C2438   1.526       .  S
C2412      O2421   1.264       .  A
O2413      C2419   1.262       .  A
O2413     Cd2416   2.421       .  S
C2414      O2422   1.269       .  A
C2415      O2420   1.260       .  A
Cd2416     O2423   2.414       .  S
Cd2416     O2422   2.478       .  S
Cd2416     O2421   2.445       .  S
Cd2416     O2420   2.363       .  S
C2419      O2423   1.260       .  A
C2419      C2428   1.442       .  S
O2424      C2427   1.264       .  A
O2424     Cd2429   2.430       .  S
C2425      C2439   1.531       .  S
C2425      O2434   1.263       .  A
C2425      O2430   1.271       .  A
O2426      C2432   1.260       .  A
O2426     Cd2429   2.376       .  S
C2427      O2435   1.268       .  A
C2428      O2433   1.261       .  A
C2428      O2431   1.263       .  A
Cd2429     O2436   2.544       .  S
Cd2429     O2435   2.491       .  S
Cd2429     O2434   2.436       .  S
Cd2429     O2430   2.493       .  S
Cd2429     O2433   2.410       .  S
Cd2429     O2431   2.423       .  S
C2432      O2436   1.270       .  A
C2437      C2578   1.578       .  S
C2438      C2459   1.525       .  S
C2438      C2550   1.578       .  S
C2439      C2472   1.531       .  S
C2439      C2536   1.563       .  S
C2439      C2553   1.563       .  S
C2440      C2483   1.524       .  S
C2440      C2539   1.566       .  S
C2441      C2511   1.531       .  S
C2441      C2567   1.570       .  S
C2442      C2496   1.533       .  S
C2442      C2522   1.559       .  S
C2442      C2592   1.571       .  S
C2444      O2453   1.262       .  A
O2445      C2451   1.263       .  A
O2445     Cd2448   2.478       .  S
C2446      O2454   1.271   1_565  A
C2447      O2452   1.262       .  A
C2447      C2464   1.470       .  S
Cd2448     O2455   2.368       .  S
Cd2448     O2454   2.501   1_565  S
Cd2448     O2453   2.413       .  S
Cd2448     O2452   2.402       .  S
C2451      O2455   1.258       .  A
C2451      C2503   1.446       .  S
O2456      C2459   1.264       .  A
C2457      O2466   1.265       .  A
O2458      C2464   1.261       .  A
O2458     Cd2461   2.403       .  S
C2460      O2465   1.263       .  A
C2460      O2463   1.261       .  A
C2460      C2516   1.445       .  S
Cd2461     O2467   2.503   1_565  S
Cd2461     O2466   2.436       .  S
Cd2461     O2465   2.440       .  S
Cd2461     O2463   2.400       .  S
O2469      C2472   1.263       .  A
O2469     Cd2474   2.457       .  S
C2470      O2479   1.264       .  A
C2470      O2475   1.271       .  A
O2471      C2477   1.262       .  A
O2471     Cd2474   2.406       .  S
C2472      O2480   1.270       .  A
C2473      O2478   1.260       .  A
C2473      O2476   1.270       .  A
C2473      C2499   1.466       .  S
Cd2474     O2481   2.431       .  S
Cd2474     O2480   2.490       .  S
Cd2474     O2479   2.443       .  S
Cd2474     O2475   2.479       .  S
Cd2474     O2478   2.381       .  S
Cd2474     O2476   2.542       .  S
C2477      O2481   1.263       .  A
C2477      C2490   1.443       .  S
O2482      C2485   1.269       .  A
O2482     Cd2487   2.457       .  S
C2483      O2492   1.271       .  A
C2483      O2488   1.265       .  A
O2484      C2490   1.262       .  A
O2484     Cd2487   2.403       .  S
C2485      O2493   1.263       .  A
C2486      O2491   1.261       .  A
C2486      O2489   1.269       .  A
C2486      C2512   1.461       .  S
Cd2487     O2494   2.426       .  S
Cd2487     O2493   2.450       .  S
Cd2487     O2492   2.495       .  S
Cd2487     O2488   2.435       .  S
Cd2487     O2491   2.376       .  S
Cd2487     O2489   2.523       .  S
C2490      O2494   1.263       .  A
O2495      C2498   1.272       .  A
O2495     Cd2500   2.536       .  S
C2496      O2505   1.262       .  A
C2496      O2501   1.272       .  A
O2497      C2503   1.266       .  A
O2497     Cd2500   2.464       .  S
C2498      O2506   1.258       .  A
C2499      O2504   1.258       .  A
C2499      O2502   1.267       .  A
Cd2500     O2507   2.382       .  S
Cd2500     O2506   2.403       .  S
Cd2500     O2505   2.432       .  S
Cd2500     O2501   2.481       .  S
Cd2500     O2504   2.392       .  S
Cd2500     O2502   2.555       .  S
C2503      O2507   1.261       .  A
O2508      C2511   1.268       .  A
O2508     Cd2513   2.458       .  S
C2509      O2518   1.262       .  A
C2509      O2514   1.272       .  A
O2510      C2516   1.266       .  A
O2510     Cd2513   2.425       .  S
C2511      O2519   1.262       .  A
C2512      O2517   1.259       .  A
C2512      O2515   1.268       .  A
Cd2513     O2520   2.405       .  S
Cd2513     O2519   2.451       .  S
Cd2513     O2518   2.404       .  S
Cd2513     O2514   2.532       .  S
Cd2513     O2517   2.381       .  S
Cd2513     O2515   2.530       .  S
C2516      O2520   1.264       .  A
C2521      C2522   1.409       .  A
C2521      C2526   1.395       .  A
C2521      H2528   1.080       .  S
C2522      C2523   1.431       .  A
C2523      C2524   1.415       .  A
C2523      N2530   1.438       .  S
C2524      C2525   1.412       .  A
C2524      H2529   1.083   1_655  S
C2525      C2526   1.417       .  A
C2526      N2527   1.439       .  S
N2527      H2531   1.044       .  S
N2527      H2532   1.046       .  S
N2530      H2533   1.042       .  S
N2530      H2534   1.045       .  S
C2535      C2536   1.408       .  A
C2535      C2540   1.399       .  A
C2535      H2542   1.084       .  S
C2536      C2537   1.425       .  A
C2537      C2538   1.412       .  A
C2537      N2544   1.437       .  S
C2538      C2539   1.415       .  A
C2538      H2543   1.079       .  S
C2539      C2540   1.434       .  A
C2540      N2541   1.441       .  S
N2541      H2545   1.046       .  S
N2541      H2546   1.037       .  S
N2544      H2547   1.046       .  S
N2544      H2548   1.045       .  S
C2549      C2550   1.417       .  A
C2549      C2554   1.411       .  A
C2549      H2556   1.084       .  S
C2550      C2551   1.432       .  A
C2551      C2552   1.405       .  A
C2551      N2558   1.431       .  S
C2552      C2553   1.408       .  A
C2552      H2557   1.080       .  S
C2553      C2554   1.418       .  A
C2554      N2555   1.432       .  S
N2555      H2559   1.046       .  S
N2555      H2560   1.046       .  S
N2558      H2561   1.046       .  S
N2558      H2562   1.046       .  S
C2563      C2564   1.417       .  A
C2563      C2568   1.416       .  A
C2563      H2570   1.077       .  S
C2564      C2565   1.436       .  A
C2565      C2566   1.401       .  A
C2565      N2572   1.443       .  S
C2566      C2567   1.408       .  A
C2566      H2571   1.081       .  S
C2567      C2568   1.421       .  A
C2568      N2569   1.436       .  S
N2569      H2573   1.046       .  S
N2569      H2574   1.046       .  S
N2572      H2575   1.036       .  S
N2572      H2576   1.044       .  S
C2577      C2578   1.415       .  A
C2577      C2582   1.407       .  A
C2577      H2584   1.079       .  S
C2578      C2579   1.422       .  A
C2579      C2580   1.413       .  A
C2579      N2586   1.432       .  S
C2580      C2581   1.416       .  A
C2581      C2582   1.427       .  A
C2582      N2583   1.431       .  S
N2583      H2587   1.046       .  S
N2583      H2588   1.046       .  S
N2586      H2589   1.045       .  S
N2586      H2590   1.046       .  S
C2591      C2592   1.408       .  A
C2591      C2596   1.403       .  A
C2591      H2598   1.081       .  S
C2592      C2593   1.421       .  A
C2593      C2594   1.415       .  A
C2593      N2600   1.436       .  S
C2594      C2595   1.416       .  A
C2594      H2599   1.077       .  S
C2595      C2596   1.437       .  A
C2596      N2597   1.444       .  S
N2597      H2601   1.044       .  S
N2597      H2602   1.036       .  S
N2600      H2603   1.046       .  S
N2600      H2604   1.046       .  S
C2605      C2610   1.412       .  A
C2605      H2612   1.082       .  S
C2606      C2607   1.432       .  A
C2607      C2608   1.409       .  A
C2607      N2614   1.432       .  S
C2608      C2609   1.414       .  A
C2608      H2613   1.081       .  S
C2610      N2611   1.438       .  S
N2611      H2615   1.046       .  S
N2611      H2616   1.044       .  S
N2614      H2617   1.043   1_655  S
N2614      H2618   1.041       .  S
C2619      C2624   1.414       .  A
C2619      H2626   1.083       .  S
C2620      C2621   1.439       .  A
C2621      C2622   1.398       .  A
C2621      N2628   1.431       .  S
C2622      C2623   1.407   1_556  A
C2622      H2627   1.080       .  S
C2624      N2625   1.436       .  S
N2625      H2629   1.046       .  S
N2625      H2630   1.043       .  S
N2628      H2631   1.044       .  S
N2628      H2632   1.040       .  S
C2633      C2634   1.413       .  A
C2633      C2638   1.411       .  A
C2633      H2640   1.081       .  S
C2635      C2636   1.401       .  A
C2635      N2642   1.433       .  S
C2636      H2641   1.083       .  S
C2637      C2638   1.424       .  A
C2638      N2639   1.438       .  S
N2639      H2643   1.045       .  S
N2639      H2644   1.045       .  S
N2642      H2645   1.046       .  S
N2642      H2646   1.045       .  S
C2647      C2648   1.412       .  A
C2647      C2652   1.406       .  A
C2647      H2654   1.079       .  S
C2649      C2650   1.405       .  A
C2649      N2656   1.441       .  S
C2650      H2655   1.082       .  S
C2651      C2652   1.429       .  A
C2652      N2653   1.438       .  S
N2653      H2657   1.045   1_565  S
N2656      H2659   1.044       .  S
N2656      H2660   1.046       .  S
C2661      C2662   1.417       .  A
C2661      C2666   1.412       .  A
C2663      C2664   1.404       .  A
C2663      N2670   1.440       .  S
C2664      H2669   1.082   1_554  S
C2665      C2666   1.414       .  A
C2666      N2667   1.437       .  S
N2667      H2671   1.046       .  S
N2667      H2672   1.045       .  S
N2670      H2673   1.042       .  S
N2670      H2674   1.046       .  S
C2675      C2676   1.417       .  A
C2675      C2680   1.415       .  A
C2675      H2682   1.079       .  S
C2677      C2678   1.399       .  A
C2677      N2684   1.435       .  S
C2678      H2683   1.080       .  S
C2679      C2680   1.420       .  A
C2680      N2681   1.437       .  S
N2681      H2685   1.046       .  S
N2684      H2687   1.046       .  S
N2684      H2688   1.046       .  S
