geometry optimzed in LAMMPS
_audit_creation_date              2020-11-30 
_audit_creation_method            'lammps2cif' 
_symmetry_space_group_name_H-M    'P1' 
_symmetry_Int_Tables_number       1 
_symmetry_cell_setting            triclinic 
loop_ 
_symmetry_equiv_pos_as_xyz 
  x,y,z 
_cell_length_a                    44.84123151 
_cell_length_b                    44.73624590285735 
_cell_length_c                    44.76424792706824 
_cell_angle_alpha                 89.94626599422683 
_cell_angle_beta                  89.9882059074513 
_cell_angle_gamma                 89.95230050844276 
loop_ 
_atom_site_label 
_atom_site_type_symbol 
_atom_site_fract_x 
_atom_site_fract_y 
_atom_site_fract_z 
_atom_site_charge 
N1          N  0.03313505  0.25957095  0.26285338    -0.02600
C2          C  0.04105614  0.23091213  0.26863797     0.00000
C3          C  0.05040582  0.21671968  0.24290408    -0.22900
C4          C  0.04858321  0.23751467  0.22038508    -0.23100
C5          C  0.03823395  0.26365204  0.23320033    -0.00100
H6          H  0.05666240  0.19346568  0.24059236     0.13700
H7          H  0.05343658  0.23378809  0.19699866     0.13700
O8          O  0.00016917  0.40817315  0.44952085    -0.85600
O9          O  0.99138118  0.57781613  0.44725510    -0.85800
O10         O  0.94738363  0.48994079  0.41443364    -0.87500
O11         O  0.04301499  0.49282579  0.41072891    -0.86200
O12         O  0.08110144  0.49380592  0.44466905    -0.85800
O13         O  0.91104896  0.48805317  0.45037635    -0.87200
O14         O  0.99243093  0.54160339  0.41135037    -0.85700
O15         O  0.99784739  0.44390745  0.41301975    -0.85200
Zr16       Zr  0.99599226  0.49299731  0.43716762     2.84300
O17         O  0.02660302  0.52434922  0.46541219    -1.07200
O18         O  0.96714561  0.46199213  0.46796867    -1.08000
C19         C  0.99952059  0.41637553  0.42182243     1.07500
C20         C  0.99047442  0.56927006  0.41964245     1.07400
C21         C  0.92008609  0.48765305  0.42288928     1.10400
C22         C  0.07086972  0.49312986  0.41754170     1.08200
H23         H  0.95234333  0.53411947  0.45533145     0.33700
O24         O  0.96549727  0.52228486  0.46766946    -1.28200
H25         H  0.04036025  0.45146149  0.45399956     0.33400
O26         O  0.02804386  0.46396506  0.46653149    -1.29900
O27         O  0.99723574  0.57965057  0.54452061    -0.85600
O28         O  0.00259969  0.41058692  0.54742406    -0.87100
O29         O  0.91146625  0.54018801  0.49855626    -0.85700
O30         O  0.08098365  0.54502358  0.49077004    -0.85800
O31         O  0.08375633  0.44647808  0.49677912    -0.85500
O32         O  0.91412920  0.44091555  0.50286013    -0.85300
O33         O  0.95211429  0.49507321  0.58229228    -0.85600
O34         O  0.04790878  0.49639738  0.57979642    -0.85100
O35         O  0.91389530  0.49440373  0.54829938    -0.86200
O36         O  0.08414549  0.49624198  0.54372158    -0.85300
O37         O  0.94739836  0.57628155  0.49822226    -0.85700
O38         O  0.95237936  0.40704688  0.50042976    -0.85400
O39         O  0.04788266  0.41036226  0.49936760    -0.85100
O40         O  0.04353721  0.57994978  0.49142028    -0.85500
O41         O  0.99900543  0.54411475  0.58111914    -0.85800
O42         O  0.00222537  0.44721592  0.58303479    -0.87100
Zr43       Zr  0.99622692  0.55370406  0.49612145     2.83100
Zr44       Zr  0.99929509  0.43377270  0.49795033     2.83500
Zr45       Zr  0.93658333  0.49137015  0.49874138     2.84100
Zr46       Zr  0.05871321  0.49526853  0.49497011     2.83400
Zr47       Zr  0.99945135  0.49503663  0.55664470     2.84200
O48         O  0.02964180  0.46517906  0.52638996    -1.07700
O49         O  0.96718645  0.52329702  0.52712132    -1.07200
C50         C  0.99791505  0.57166729  0.57229334     1.07400
C51         C  0.00350854  0.41952274  0.57484759     1.10100
C52         C  0.91992510  0.56782442  0.49856994     1.07600
C53         C  0.07126334  0.57222204  0.48975984     1.08000
C54         C  0.07534084  0.41890007  0.49876768     1.07600
C55         C  0.92461144  0.41381703  0.50323544     1.07100
C56         C  0.92434600  0.49589097  0.57518619     1.07500
C57         C  0.07527613  0.49609250  0.57131106     1.07100
H58         H  0.95757725  0.45055450  0.54206298     0.33700
O59         O  0.96893930  0.46310617  0.52870275    -1.28800
H60         H  0.04098695  0.53850269  0.53747946     0.33800
O61         O  0.02862469  0.52538869  0.52566677    -1.30200
N62         N  0.97850757  0.72918856  0.73294934    -0.02600
C63         C  0.97712813  0.72689736  0.76322851     0.00000
C64         C  0.97187258  0.75451601  0.77600696    -0.22900
C65         C  0.97063274  0.77471260  0.75308989    -0.23100
C66         C  0.97490126  0.75875439  0.72705599    -0.00100
H67         H  0.96973583  0.75945030  0.79958012     0.13700
H68         H  0.96797823  0.79866907  0.75517960     0.13700
N69         N  0.01789514  0.26142631  0.73550095    -0.02600
C70         C  0.02076052  0.23175974  0.72940241     0.00000
C71         C  0.02225507  0.21526409  0.75542568    -0.22900
C72         C  0.01973835  0.23506160  0.77849083    -0.23100
C73         C  0.01657460  0.26310854  0.76588845    -0.00100
H74         H  0.02349350  0.19117216  0.75731900     0.13700
H75         H  0.01948384  0.22955379  0.80204037     0.13700
N76         N  0.98659825  0.73305250  0.26296018    -0.02600
C77         C  0.99623655  0.72901535  0.23443095     0.00000
C78         C  0.99742219  0.75587858  0.21926705    -0.22900
C79         C  0.98942770  0.77750754  0.23923354    -0.23100
C80         C  0.98255689  0.76313668  0.26573966    -0.00100
H81         H  0.00378353  0.75935713  0.19620107     0.13700
H82         H  0.98917726  0.80133521  0.23504388     0.13700
O83         O  0.99980751  0.04799953  0.41355062    -0.85600
O84         O  0.00000451  0.04482447  0.58401324    -0.85800
O85         O  0.95029511  0.08249197  0.49831700    -0.87500
O86         O  0.04681239  0.08225061  0.49884441    -0.86200
O87         O  0.08278188  0.04584381  0.49849028    -0.85800
O88         O  0.91446421  0.04625482  0.49756673    -0.87200
O89         O  0.00092784  0.08046077  0.54734709    -0.85700
O90         O  0.00017459  0.08198938  0.45150737    -0.85200
Zr91       Zr  0.99889302  0.05676186  0.49888928     2.84300
O92         O  0.02899681  0.02634510  0.52886699    -1.07200
O93         O  0.96924892  0.02790352  0.46727014    -1.08000
C94         C  0.00010255  0.07518300  0.42370293     1.07500
C95         C  0.00124624  0.07228415  0.57497148     1.07400
C96         C  0.92272639  0.07380686  0.49758038     1.10400
C97         C  0.07424070  0.07348350  0.49814387     1.08200
H98         H  0.95610873  0.03963111  0.54129326     0.33700
O99         O  0.96848799  0.02706199  0.52889862    -1.28200
H100        H  0.04185406  0.03971947  0.45580764     0.33400
O101        O  0.02914846  0.02719316  0.46791551    -1.29900
O102        O  0.99440662  0.94628229  0.58171048    -0.85600
O103        O  0.99523493  0.94861405  0.41207149    -0.87100
O104        O  0.91405838  0.99757478  0.54495727    -0.85700
O105        O  0.08331557  0.99515603  0.54648357    -0.85800
O106        O  0.08396439  0.99473268  0.44952591    -0.85500
O107        O  0.91442124  0.00099572  0.44878884    -0.85300
O108        O  0.94925751  0.91313686  0.49782860    -0.85600
O109        O  0.04679062  0.91261729  0.49866398    -0.85100
O110        O  0.91362949  0.94958421  0.49765071    -0.86200
O111        O  0.08355300  0.94780537  0.50013567    -0.85300
O112        O  0.94914043  0.99585492  0.58201993    -0.85700
O113        O  0.95012314  0.00086461  0.41239885    -0.85400
O114        O  0.04861145  0.99538288  0.41252070    -0.85100
O115        O  0.04770018  0.99395681  0.58314308    -0.85500
O116        O  0.99325689  0.91160173  0.54435779    -0.85800
O117        O  0.99587202  0.91290682  0.44894701    -0.87100
Zr118      Zr  0.99852987  0.99609677  0.55884033     2.83100
Zr119      Zr  0.99922658  0.99785464  0.43646598     2.83500
Zr120      Zr  0.93900187  0.99783494  0.49715226     2.84100
Zr121      Zr  0.05885476  0.99649776  0.49802534     2.83400
Zr122      Zr  0.99811447  0.93736160  0.49700738     2.84200
O123        O  0.02892211  0.96696512  0.46684665    -1.07700
O124        O  0.96839676  0.96725116  0.52743943    -1.07200
C125        C  0.99225550  0.91907746  0.57216775     1.07400
C126        C  0.99379063  0.92120757  0.42148621     1.10100
C127        C  0.92190305  0.99673658  0.57265393     1.07600
C128        C  0.07515702  0.99381190  0.57414171     1.08000
C129        C  0.07600200  0.99409777  0.42178211     1.07600
C130        C  0.92265605  0.00210347  0.42114237     1.07100
C131        C  0.92176612  0.92192028  0.49770537     1.07500
C132        C  0.07447272  0.92035872  0.50033133     1.07100
H133        H  0.95555843  0.95583659  0.45420601     0.33700
O134        O  0.96852789  0.96783009  0.46651700    -1.28800
H135        H  0.04037678  0.95320265  0.54050666     0.33800
O136        O  0.02843382  0.96619599  0.52809694    -1.30200
N137        N  0.23475826  0.23006822  0.48192968    -0.02600
C138        C  0.23276617  0.26026633  0.48471086     0.00000
C139        C  0.26047491  0.27339902  0.48177825    -0.22900
C140        C  0.28049971  0.25062127  0.47793987    -0.23100
C141        C  0.26427559  0.22441834  0.47827595    -0.00100
H142        H  0.26556199  0.29701616  0.48287844     0.13700
H143        H  0.30446069  0.25278286  0.47600030     0.13700
N144        N  0.76026729  0.22856347  0.51906405    -0.02600
C145        C  0.76605959  0.25789198  0.52479398     0.00000
C146        C  0.73967987  0.27396705  0.52547440    -0.22900
C147        C  0.71704417  0.25410712  0.52016681    -0.23100
C148        C  0.73022699  0.22655546  0.51563846    -0.00100
H149        H  0.73723068  0.29783583  0.52847711     0.13700
H150        H  0.69355223  0.25940580  0.51849061     0.13700
N151        N  0.76533333  0.76070264  0.48218124    -0.02600
C152        C  0.73584555  0.76643875  0.47923343     0.00000
C153        C  0.71950814  0.74030883  0.47847262    -0.22900
C154        C  0.73956130  0.71740282  0.48116897    -0.23100
C155        C  0.76728683  0.73050394  0.48379363    -0.00100
H156        H  0.69548595  0.73827317  0.47732509     0.13700
H157        H  0.73449791  0.69376352  0.48188505     0.13700
N158        N  0.23039794  0.76076550  0.47711877    -0.02600
C159        C  0.22696680  0.73155532  0.46933783     0.00000
C160        C  0.25446335  0.71760093  0.46782844    -0.22900
C161        C  0.27547410  0.73873919  0.47468479    -0.23100
C162        C  0.26019235  0.76484046  0.48088860    -0.00100
H163        H  0.25869557  0.69423417  0.46323961     0.13700
H164        H  0.29932335  0.73524597  0.47592025     0.13700
N165        N  0.73502739  0.01989657  0.25851860    -0.02600
C166        C  0.76498473  0.02227490  0.26230698     0.00000
C167        C  0.77896646  0.02722416  0.23526414    -0.22900
C168        C  0.75697555  0.02729851  0.21391488    -0.23100
C169        C  0.73032177  0.02272778  0.22872110    -0.00100
H170        H  0.80270375  0.02920018  0.23137936     0.13700
H171        H  0.76014785  0.02918842  0.19001880     0.13700
O172        O  0.44786593  0.07610943  0.48725234    -0.85600
O173        O  0.44924460  0.90656451  0.49453427    -0.85800
O174        O  0.41224618  0.98928077  0.44496208    -0.87500
O175        O  0.41402993  0.99348998  0.54123421    -0.86200
O176        O  0.44987259  0.99518522  0.57716174    -0.85800
O177        O  0.44693533  0.98881621  0.40774008    -0.87200
O178        O  0.41365896  0.94349658  0.49519160    -0.85700
O179        O  0.41301996  0.03896934  0.48712826    -0.85200
Zr180      Zr  0.43823939  0.99165355  0.49248205     2.84300
O181        O  0.46841780  0.96200722  0.52276907    -1.07200
O182        O  0.46720289  0.02133223  0.46089063    -1.08000
C183        C  0.42071452  0.06667140  0.48561707     1.07500
C184        C  0.42189004  0.91587048  0.49525389     1.07400
C185        C  0.41957018  0.98843015  0.41718224     1.10400
C186        C  0.42220948  0.99441991  0.56880211     1.08200
H187        H  0.45474597  0.94785640  0.45075367     0.33700
O188        O  0.46751898  0.96058209  0.46254959    -1.28200
H189        H  0.45506609  0.03688556  0.53345272     0.33400
O190        O  0.46741304  0.02411648  0.52122652    -1.29900
O191        O  0.54790881  0.90795958  0.49258431    -0.85600
O192        O  0.54613999  0.07788840  0.48802772    -0.87100
O193        O  0.49635714  0.94185545  0.40754549    -0.85700
O194        O  0.49783994  0.94671490  0.57671907    -0.85800
O195        O  0.50217768  0.04256539  0.57446615    -0.85500
O196        O  0.49553844  0.03773391  0.40519633    -0.85300
O197        O  0.58154999  0.99318301  0.44049441    -0.85600
O198        O  0.58197601  0.99565383  0.53842766    -0.85100
O199        O  0.54490121  0.99097212  0.40515623    -0.86200
O200        O  0.54689624  0.99525732  0.57525693    -0.85300
O201        O  0.49608845  0.90573379  0.44392732    -0.85700
O202        O  0.49643614  0.07574416  0.43946093    -0.85400
O203        O  0.50221447  0.07834410  0.53786088    -0.85100
O204        O  0.49842905  0.90860547  0.54296443    -0.85500
O205        O  0.58219334  0.94567792  0.49202836    -0.85800
O206        O  0.58187392  0.04131166  0.48946616    -0.87100
Zr207      Zr  0.49829711  0.93104531  0.49278269     2.83100
Zr208      Zr  0.49729941  0.05322273  0.48933395     2.83500
Zr209      Zr  0.49666126  0.99035851  0.43108078     2.84100
Zr210      Zr  0.49811571  0.99413462  0.55103790     2.83400
Zr211      Zr  0.55721432  0.99310026  0.48979976     2.84200
O212        O  0.52754629  0.02361050  0.51965901    -1.07700
O213        O  0.52770656  0.96089026  0.46109646    -1.07200
C214        C  0.57499958  0.91784362  0.49270343     1.07400
C215        C  0.57359851  0.06886118  0.48853417     1.10100
C216        C  0.49534942  0.91441877  0.41629822     1.07600
C217        C  0.49803920  0.91881999  0.57008810     1.08000
C218        C  0.50398725  0.06987982  0.56546504     1.07600
C219        C  0.49565922  0.06557112  0.41238919     1.07100
C220        C  0.57261012  0.99260307  0.41294303     1.07500
C221        C  0.57428469  0.99611980  0.56620682     1.07100
H222        H  0.53907069  0.03442989  0.44625729     0.33700
O223        O  0.52685620  0.02231397  0.45926351    -1.28800
H224        H  0.54098294  0.95143387  0.53424507     0.33800
O225        O  0.52817771  0.96316328  0.52144692    -1.30200
N226        N  0.26664974  0.96007605  0.72854668    -0.02600
C227        C  0.27060921  0.95587491  0.75836428     0.00000
C228        C  0.24425622  0.94702248  0.77160069    -0.22900
C229        C  0.22307456  0.94675380  0.74943138    -0.23100
C230        C  0.23723659  0.95509502  0.72326898    -0.00100
H231        H  0.24046738  0.94310138  0.79515811     0.13700
H232        H  0.19942030  0.94303432  0.75245241     0.13700
N233        N  0.73046109  0.02993185  0.72570008    -0.02600
C234        C  0.76031717  0.02954793  0.72034895     0.00000
C235        C  0.77614336  0.03483273  0.74619850    -0.22900
C236        C  0.75561043  0.03823257  0.76849281    -0.23100
C237        C  0.72773468  0.03527406  0.75555537    -0.00100
H238        H  0.80013837  0.03447879  0.74879930     0.13700
H239        H  0.76056415  0.04079162  0.79200155     0.13700
N240        N  0.26105811  0.99096618  0.25603306    -0.02600
C241        C  0.26813572  0.99362679  0.22663572     0.00000
C242        C  0.24281927  0.99815540  0.20973958    -0.22900
C243        C  0.21918145  0.99739832  0.22919039    -0.23100
C244        C  0.23072992  0.99180658  0.25731037    -0.00100
H245        H  0.24171091  0.00149881  0.18581752     0.13700
H246        H  0.19602019  0.00088874  0.22340447     0.13700
O247        O  0.58731596  0.99519125  0.04056731    -0.85600
O248        O  0.41809274  0.99001261  0.04489272    -0.85800
O249        O  0.50250647  0.03971239  0.07745613    -0.87500
O250        O  0.50350570  0.94283508  0.07708681    -0.86200
O251        O  0.50506502  0.90630133  0.04154326    -0.85800
O252        O  0.50080345  0.07621236  0.04200710    -0.87200
O253        O  0.45576387  0.99134211  0.07927549    -0.85700
O254        O  0.55076821  0.99442177  0.07600748    -0.85200
Zr255      Zr  0.50263104  0.99165376  0.05237356     2.84300
O256        O  0.47226479  0.96101411  0.02353192    -1.07200
O257        O  0.53162316  0.02289866  0.02215770    -1.08000
C258        C  0.57834863  0.99544978  0.06805043     1.07500
C259        C  0.42791323  0.99076858  0.07207903     1.07400
C260        C  0.50182089  0.06736037  0.06958970     1.10400
C261        C  0.50466787  0.91513790  0.06907372     1.08200
H262        H  0.45844927  0.03392267  0.03679960     0.33700
O263        O  0.47073289  0.02150663  0.02378400    -1.28200
H264        H  0.54674488  0.95040096  0.03459940     0.33400
O265        O  0.53387073  0.96256251  0.02233041    -1.29900
O266        O  0.41543987  0.98934699  0.94590736    -0.85600
O267        O  0.58526325  0.99731107  0.94165567    -0.87100
O268        O  0.45177837  0.07639838  0.99349216    -0.85700
O269        O  0.45567094  0.90647166  0.99560421    -0.85800
O270        O  0.55207344  0.90899695  0.99007050    -0.85500
O271        O  0.54661322  0.07835014  0.99076902    -0.85300
O272        O  0.49737385  0.03903650  0.90751262    -0.85600
O273        O  0.50140667  0.94323292  0.90822198    -0.85100
O274        O  0.49743671  0.07541354  0.94327494    -0.86200
O275        O  0.50275646  0.90705465  0.94443839    -0.85300
O276        O  0.41542836  0.04046267  0.99474297    -0.85700
O277        O  0.58501018  0.04451476  0.99102444    -0.85400
O278        O  0.58817010  0.94529445  0.98871478    -0.85100
O279        O  0.41778378  0.94075212  0.99609785    -0.85500
O280        O  0.45136811  0.98867615  0.90961812    -0.85800
O281        O  0.54730318  0.99392246  0.90760289    -0.87100
Zr282      Zr  0.44022040  0.99084109  0.99462731     2.83100
Zr283      Zr  0.56267748  0.99398569  0.99148314     2.83500
Zr284      Zr  0.49965884  0.05189291  0.99276811     2.84100
Zr285      Zr  0.50324549  0.93194667  0.99313904     2.83400
Zr286      Zr  0.49982405  0.99142399  0.93341505     2.84200
O287        O  0.53227184  0.96260741  0.96236226    -1.07700
O288        O  0.46919633  0.02131182  0.96344034    -1.07200
C289        C  0.42394457  0.98805037  0.91834187     1.07400
C290        C  0.57494724  0.99721011  0.91461892     1.10100
C291        C  0.42428161  0.06811636  0.99415014     1.07600
C292        C  0.42786616  0.91355283  0.99627968     1.08000
C293        C  0.57941293  0.91766363  0.98874214     1.07600
C294        C  0.57450304  0.07157933  0.99092487     1.07100
C295        C  0.49754716  0.06666178  0.91576116     1.07500
C296        C  0.50244500  0.91572071  0.91688481     1.07100
H297        H  0.54148776  0.03576094  0.94926599     0.33700
O298        O  0.53011447  0.02273534  0.96218054    -1.28800
H299        H  0.45871402  0.94791792  0.95205465     0.33800
O300        O  0.47086300  0.96091572  0.96414952    -1.30200
N301        N  0.52238146  0.22706375  0.22761539    -0.02600
C302        C  0.52163736  0.22233647  0.25745954     0.00000
C303        C  0.52996181  0.24780506  0.27274470    -0.22900
C304        C  0.53457501  0.26955479  0.25162227    -0.23100
C305        C  0.52914225  0.25642270  0.22425870    -0.00100
H306        H  0.53155809  0.25047456  0.29671819     0.13700
H307        H  0.53971043  0.29280834  0.25580845     0.13700
N308        N  0.46674520  0.75904238  0.22639865    -0.02600
C309        C  0.46458541  0.72940315  0.22012361     0.00000
C310        C  0.45532306  0.71371431  0.24501291    -0.22900
C311        C  0.45188679  0.73414358  0.26751230    -0.23100
C312        C  0.45874586  0.76186319  0.25561763    -0.00100
H313        H  0.45308206  0.68970629  0.24701774     0.13700
H314        H  0.44640830  0.72910895  0.29051271     0.13700
N315        N  0.49791937  0.75597473  0.75775746    -0.02600
C316        C  0.50176080  0.72620335  0.76285829     0.00000
C317        C  0.50566023  0.71092001  0.73633637    -0.22900
C318        C  0.50496061  0.73179453  0.71400672    -0.23100
C319        C  0.50026357  0.75902400  0.72763921    -0.00100
H320        H  0.50853856  0.68705221  0.73361559     0.13700
H321        H  0.50748430  0.72764662  0.69032435     0.13700
N322        N  0.51353027  0.22531706  0.75738053    -0.02600
C323        C  0.51122767  0.22331295  0.72711772     0.00000
C324        C  0.50858451  0.25140691  0.71454664    -0.22900
C325        C  0.50857249  0.27145652  0.73765751    -0.23100
C326        C  0.51154684  0.25503223  0.76359621    -0.00100
H327        H  0.50690880  0.25668585  0.69100635     0.13700
H328        H  0.50651389  0.29549224  0.73582753     0.13700
O329        O  0.00273994  0.41127953  0.04746858    -0.85600
O330        O  0.00303079  0.58078916  0.05162326    -0.85800
O331        O  0.05058250  0.49367735  0.08323066    -0.87500
O332        O  0.95341957  0.49522249  0.08435793    -0.86200
O333        O  0.91664775  0.49748634  0.04938429    -0.85800
O334        O  0.08672749  0.49414267  0.04724912    -0.87200
O335        O  0.00166832  0.54257140  0.08562138    -0.85700
O336        O  0.00359670  0.44725340  0.08377258    -0.85200
Zr337      Zr  0.00173537  0.49556686  0.05932374     2.84300
O338        O  0.97158151  0.52751466  0.03113587    -1.07200
O339        O  0.03127148  0.46600902  0.02834268    -1.08000
C340        C  0.00423783  0.41976939  0.07508390     1.07500
C341        C  0.00292540  0.57042054  0.07868489     1.07400
C342        C  0.07808605  0.49281536  0.07483546     1.10400
C343        C  0.92570874  0.49625755  0.07680828     1.08200
H344        H  0.04473119  0.53858139  0.04317632     0.33700
O345        O  0.03195372  0.52686229  0.03037548    -1.28200
H346        H  0.95857637  0.45344014  0.04192103     0.33400
O347        O  0.97096421  0.46599016  0.02948969    -1.29900
O348        O  0.00023490  0.58374548  0.95289522    -0.85600
O349        O  0.00115610  0.41402067  0.94843915    -0.87100
O350        O  0.08605706  0.54482924  0.00046583    -0.85700
O351        O  0.91685540  0.54635487  0.00110562    -0.85800
O352        O  0.91607219  0.45033050  0.99890086    -0.85500
O353        O  0.08606147  0.44944902  0.99798888    -0.85300
O354        O  0.04775742  0.49988434  0.91363480    -0.85600
O355        O  0.95167538  0.50200935  0.91579872    -0.85100
O356        O  0.08444728  0.49930356  0.94914216    -0.86200
O357        O  0.91594368  0.50102101  0.95219492    -0.85300
O358        O  0.05118250  0.58217866  0.00010227    -0.85700
O359        O  0.05061232  0.41246717  0.99823812    -0.85400
O360        O  0.95075157  0.41270403  0.99733349    -0.85100
O361        O  0.95251215  0.58276948  0.00238386    -0.85500
O362        O  0.00150109  0.54721153  0.91721689    -0.85800
O363        O  0.99953531  0.45151658  0.91354020    -0.87100
Zr364      Zr  0.00174415  0.55849400  0.00151958     2.83100
Zr365      Zr  0.00072832  0.43608526  0.99842076     2.83500
Zr366      Zr  0.06107766  0.49710318  0.99884634     2.84100
Zr367      Zr  0.94126465  0.49799872  0.00060004     2.83400
Zr368      Zr  0.00036308  0.49861000  0.94019085     2.84200
O369        O  0.97028310  0.46758798  0.96946149    -1.07700
O370        O  0.03104251  0.52851027  0.97003079    -1.07200
C371        C  0.00025278  0.57475006  0.92545050     1.07400
C372        C  0.00026607  0.42374322  0.92124553     1.10100
C373        C  0.07846983  0.57254025  0.00004784     1.07600
C374        C  0.92502540  0.57401331  0.00133654     1.08000
C375        C  0.92347945  0.42259865  0.99737773     1.07600
C376        C  0.07802073  0.42189201  0.99848972     1.07100
C377        C  0.07541131  0.49999008  0.92167873     1.07500
C378        C  0.92420345  0.50285180  0.92459931     1.07100
H379        H  0.04313961  0.45521722  0.95565021     0.33700
O380        O  0.03077799  0.46716547  0.96866511    -1.28800
H381        H  0.95874825  0.54162307  0.95904344     0.33800
O382        O  0.97120862  0.52882119  0.97112167    -1.30200
N383        N  0.76418790  0.50946699  0.23372449    -0.02600
C384        C  0.76714651  0.50824033  0.26384887     0.00000
C385        C  0.74091774  0.51672160  0.27765742    -0.22900
C386        C  0.72051874  0.52174994  0.25537421    -0.23100
C387        C  0.73512221  0.51652934  0.22872793    -0.00100
H388        H  0.73680335  0.51808813  0.30144049     0.13700
H389        H  0.69714554  0.52703533  0.25829459     0.13700
N390        N  0.23704908  0.47931492  0.23415461    -0.02600
C391        C  0.26685021  0.47632930  0.22937908     0.00000
C392        C  0.28164595  0.47134328  0.25595601    -0.22900
C393        C  0.26049055  0.47223569  0.27805428    -0.23100
C394        C  0.23358234  0.47823855  0.26425795    -0.00100
H395        H  0.30540816  0.46836909  0.25897964     0.13700
H396        H  0.26442095  0.46957290  0.30175881     0.13700
N397        N  0.23366316  0.50281718  0.76095822    -0.02600
C398        C  0.26296263  0.50765938  0.76729203     0.00000
C399        C  0.27906161  0.51370029  0.74173569    -0.22900
C400        C  0.25935008  0.51255464  0.71852859    -0.23100
C401        C  0.23192393  0.50534336  0.73064123    -0.00100
H402        H  0.30277280  0.51793462  0.74018479     0.13700
H403        H  0.26452748  0.51583020  0.69513428     0.13700
N404        N  0.76693539  0.51079550  0.76345523    -0.02600
C405        C  0.77035595  0.51280344  0.73341855     0.00000
C406        C  0.74348317  0.50839294  0.71892400    -0.22900
C407        C  0.72262428  0.50355798  0.74063254    -0.23100
C408        C  0.73763134  0.50471764  0.76752123    -0.00100
H409        H  0.73973072  0.50779322  0.69504556     0.13700
H410        H  0.69920873  0.49879860  0.73723135     0.13700
N411        N  0.26455904  0.25928673  0.99272300    -0.02600
C412        C  0.23467836  0.26195452  0.98799399     0.00000
C413        C  0.22304794  0.23554184  0.97698012    -0.22900
C414        C  0.24615832  0.21558415  0.97552972    -0.23100
C415        C  0.27119850  0.23053740  0.98530755    -0.00100
H416        H  0.20002178  0.23110467  0.97129314     0.13700
H417        H  0.24479314  0.19241403  0.96874757     0.13700
O418        O  0.50445138  0.44315326  0.08019472    -0.85600
O419        O  0.50287171  0.44292719  0.91083856    -0.85800
O420        O  0.45212474  0.40907097  0.99618935    -0.87500
O421        O  0.55025092  0.40858613  0.99639224    -0.86200
O422        O  0.58547719  0.44547019  0.99735247    -0.85800
O423        O  0.41600493  0.44506556  0.99674069    -0.87200
O424        O  0.50380575  0.40784613  0.94780393    -0.85700
O425        O  0.50474229  0.40822979  0.04287816    -0.85200
Zr426      Zr  0.50145974  0.43327632  0.99549748     2.84300
O427        O  0.53152864  0.46346153  0.96538231    -1.07200
O428        O  0.47138688  0.46255156  0.02659410    -1.08000
C429        C  0.50620475  0.41592188  0.07053270     1.07500
C430        C  0.50427829  0.41546178  0.92000316     1.07400
C431        C  0.42450130  0.41750748  0.99668112     1.10400
C432        C  0.57764823  0.41765112  0.99743199     1.08200
H433        H  0.45839094  0.45011371  0.95290665     0.33700
O434        O  0.47086967  0.46272101  0.96516028    -1.28200
H435        H  0.54458979  0.45131693  0.03826227     0.33400
O436        O  0.53148808  0.46345589  0.02596040    -1.29900
O437        O  0.49885414  0.54238145  0.91118071    -0.85600
O438        O  0.50241644  0.54173785  0.08124437    -0.87100
O439        O  0.41702304  0.49522959  0.94803059    -0.85700
O440        O  0.58489949  0.49405694  0.94826688    -0.85800
O441        O  0.58601304  0.49833812  0.04328454    -0.85500
O442        O  0.41707068  0.49183116  0.04476048    -0.85300
O443        O  0.45100103  0.57777877  0.99764255    -0.85600
O444        O  0.54751821  0.57916369  0.99376898    -0.85100
O445        O  0.41564313  0.54104505  0.99764631    -0.86200
O446        O  0.58440091  0.54375608  0.99353094    -0.85300
O447        O  0.45193374  0.49303725  0.91083807    -0.85700
O448        O  0.45274780  0.49345850  0.08110995    -0.85400
O449        O  0.55096445  0.49605487  0.08020154    -0.85100
O450        O  0.55067123  0.49218822  0.91057843    -0.85500
O451        O  0.49770143  0.57736493  0.94859271    -0.85800
O452        O  0.50249214  0.57744045  0.04441104    -0.87100
Zr453      Zr  0.50110985  0.49275636  0.93461319     2.83100
Zr454      Zr  0.50155212  0.49286330  0.05686155     2.83500
Zr455      Zr  0.44137788  0.49288474  0.99633309     2.84100
Zr456      Zr  0.56056931  0.49436702  0.99587713     2.83400
Zr457      Zr  0.49992641  0.55303823  0.99628108     2.84200
O458        O  0.53070678  0.52386218  0.02655275    -1.07700
O459        O  0.47086198  0.52269573  0.96551146    -1.07200
C460        C  0.49713722  0.56957966  0.92102020     1.07400
C461        C  0.50320971  0.56911821  0.07193741     1.10100
C462        C  0.42472940  0.49484732  0.92023801     1.07600
C463        C  0.57784409  0.49250940  0.92060013     1.08000
C464        C  0.57818457  0.49857242  0.07099741     1.07600
C465        C  0.42531903  0.49257225  0.07238667     1.07100
C466        C  0.42355052  0.56877745  0.99780632     1.07500
C467        C  0.57513979  0.57118661  0.99262709     1.07100
H468        H  0.45825739  0.53541140  0.03957804     0.33700
O469        O  0.47069552  0.52298853  0.02707359    -1.28800
H470        H  0.54236446  0.53640056  0.95274383     0.33800
O471        O  0.53021796  0.52372289  0.96524822    -1.30200
N472        N  0.73453047  0.72596236  0.95940086    -0.02600
C473        C  0.72894682  0.75432635  0.94974660     0.00000
C474        C  0.75408622  0.76609443  0.93624018    -0.22900
C475        C  0.77566895  0.74434999  0.93709782    -0.23100
C476        C  0.76303626  0.71998660  0.95110847    -0.00100
H477        H  0.75692157  0.78874944  0.92822919     0.13700
H478        H  0.79856671  0.74658125  0.92979202     0.13700
N479        N  0.26725130  0.72817280  0.03041290    -0.02600
C480        C  0.27394196  0.75706271  0.03655075     0.00000
C481        C  0.24865884  0.77255926  0.04503703    -0.22900
C482        C  0.22542290  0.75268625  0.04385280    -0.23100
C483        C  0.23729849  0.72589905  0.03423911    -0.00100
H484        H  0.24703619  0.79624236  0.04968900     0.13700
H485        H  0.20212151  0.75766028  0.04774860     0.13700
N486        N  0.73813418  0.25812935  0.99586806    -0.02600
C487        C  0.76757785  0.26240855  0.98967782     0.00000
C488        C  0.78228103  0.23536753  0.98739549    -0.22900
C489        C  0.76132509  0.21357912  0.99134573    -0.23100
C490        C  0.73451283  0.22785199  0.99688749    -0.00100
H491        H  0.80576903  0.23188701  0.98305183     0.13700
H492        H  0.76515407  0.18973590  0.98995816     0.13700
C493        C  0.65206028  0.37601029  0.00912691    -0.11000
C494        C  0.64566081  0.34820358  0.99632530     0.11600
C495        C  0.61647839  0.34238313  0.98588514    -0.02800
C496        C  0.59521291  0.36567731  0.98639761    -0.05600
C497        C  0.60172671  0.39418676  0.99824686    -0.16300
C498        C  0.63053820  0.39897263  0.01098488     0.02600
C499        C  0.66976954  0.32518042  0.99560766     0.12500
C500        C  0.60775666  0.31144924  0.97492534     0.63200
H501        H  0.57315590  0.36162878  0.97746117     0.12600
C502        C  0.63848072  0.42728327  0.02799068     0.55300
H503        H  0.67428968  0.37945163  0.01793209     0.08400
C504        C  0.69048990  0.32326555  0.97178914    -0.05500
C505        C  0.71234968  0.30057981  0.97250403    -0.06200
C506        C  0.71529472  0.28108625  0.99698102    -0.15800
C507        C  0.69621815  0.28495089  0.02200691    -0.01400
C508        C  0.67306343  0.30621708  0.02035728    -0.08900
C509        C  0.68993886  0.34554240  0.94615241     0.65400
H510        H  0.72761498  0.29792614  0.95396487     0.10800
C511        C  0.70064109  0.26828272  0.05116305     0.63800
H512        H  0.65774069  0.30869834  0.03892531     0.08200
F513        F  0.64040026  0.45127042  0.00865600    -0.19300
F514        F  0.66569134  0.42480533  0.04240221    -0.15500
F515        F  0.61702029  0.43284935  0.04949163    -0.19000
F516        F  0.61151668  0.29089008  0.99770563    -0.22400
F517        F  0.62539655  0.30318272  0.95101592    -0.23900
F518        F  0.57827001  0.31036918  0.96584717    -0.17900
F519        F  0.69187407  0.28582301  0.07508878    -0.20300
F520        F  0.73028583  0.26100121  0.05551251    -0.21500
F521        F  0.68358818  0.24259601  0.05121990    -0.18700
F522        F  0.71228233  0.33991337  0.92555586    -0.18800
F523        F  0.69404135  0.37413547  0.95709810    -0.22600
F524        F  0.66289251  0.34428398  0.93145214    -0.24200
C525        C  0.31577780  0.65943912  0.03700330    -0.11000
C526        C  0.33106841  0.65991497  0.00975026     0.11600
C527        C  0.32428011  0.68247172  0.98856158    -0.02800
C528        C  0.30249057  0.70415329  0.99578922    -0.05600
C529        C  0.28816973  0.70446379  0.02372695    -0.16300
C530        C  0.29568437  0.68214562  0.04508743     0.02600
C531        C  0.35545326  0.63758945  0.00525868     0.12500
C532        C  0.34034821  0.68380931  0.95873848     0.63200
H533        H  0.29685824  0.72145770  0.97989183     0.12600
C534        C  0.28518521  0.68195587  0.07731467     0.55300
H535        H  0.32119223  0.64210835  0.05308558     0.08400
C536        C  0.38388898  0.64132424  0.01849946    -0.05500
C537        C  0.40551911  0.61870553  0.01482962    -0.06200
C538        C  0.39948430  0.59210725  0.99912519    -0.15800
C539        C  0.37087607  0.58860168  0.98558837    -0.01400
C540        C  0.34941090  0.61149314  0.98904279    -0.08900
C541        C  0.39106536  0.66882946  0.03712845     0.65400
H542        H  0.42717087  0.62125641  0.02521160     0.10800
C543        C  0.36281320  0.56119150  0.96719501     0.63800
H544        H  0.32734757  0.60897625  0.97953836     0.08200
F545        F  0.30973681  0.68099380  0.09600144    -0.19300
F546        F  0.26827987  0.65662121  0.08240020    -0.15500
F547        F  0.26873719  0.70688672  0.08498546    -0.19000
F548        F  0.33492771  0.65794802  0.94277844    -0.22400
F549        F  0.37071365  0.68658874  0.96324962    -0.23900
F550        F  0.33098457  0.70786650  0.94166444    -0.17900
F551        F  0.33605170  0.56486114  0.95220535    -0.20300
F552        F  0.35994935  0.53655336  0.98565947    -0.21500
F553        F  0.38466591  0.55585888  0.94603871    -0.18700
F554        F  0.42062781  0.66931276  0.04597517    -0.18800
F555        F  0.37357957  0.66912962  0.06255447    -0.22600
F556        F  0.38558618  0.69453026  0.02086171    -0.24200
C557        C  0.61746516  0.64235659  0.97097926    -0.11000
C558        C  0.64450402  0.63803114  0.98601758     0.11600
C559        C  0.64829661  0.61248581  0.00431203    -0.02800
C560        C  0.62487067  0.59156117  0.00622797    -0.05600
C561        C  0.59807008  0.59523287  0.99027316    -0.16300
C562        C  0.59439761  0.62104905  0.97195525     0.02600
C563        C  0.66907021  0.65960041  0.97997963     0.12500
C564        C  0.67707213  0.60722459  0.02141687     0.63200
H565        H  0.62740427  0.57192705  0.02017232     0.12600
C566        C  0.56732898  0.62551788  0.95193935     0.55300
H567        H  0.61511721  0.66225514  0.95736795     0.08400
C568        C  0.68553380  0.65838173  0.95302596    -0.05500
C569        C  0.70703522  0.68050552  0.94755261    -0.06200
C570        C  0.71304570  0.70346698  0.96803609    -0.15800
C571        C  0.69774078  0.70371457  0.99572261    -0.01400
C572        C  0.67517205  0.68232377  0.00076796    -0.08900
C573        C  0.68008256  0.63416382  0.92979723     0.65400
H574        H  0.71865909  0.68074484  0.92650387     0.10800
C575        C  0.70485738  0.72520372  0.02080345     0.63800
H576        H  0.66249378  0.68306349  0.02137746     0.08200
F577        F  0.56269895  0.60020038  0.93484996    -0.19300
F578        F  0.57105623  0.64935505  0.93251223    -0.15500
F579        F  0.54233873  0.63125098  0.96907751    -0.19000
F580        F  0.68162092  0.63027053  0.04143314    -0.22400
F581        F  0.70087956  0.60599025  0.00182717    -0.23900
F582        F  0.67638642  0.58069263  0.03736238    -0.17900
F583        F  0.68134036  0.74488181  0.02442526    -0.20300
F584        F  0.73065533  0.74122180  0.01570756    -0.21500
F585        F  0.70880131  0.70936480  0.04707222    -0.18700
F586        F  0.70044435  0.63563608  0.90658670    -0.18800
F587        F  0.65187603  0.63728860  0.91776965    -0.22600
F588        F  0.68254701  0.60622033  0.94277828    -0.24200
C589        C  0.30902323  0.32670852  0.01798290    -0.11000
C590        C  0.32810538  0.33047524  0.99344178     0.11600
C591        C  0.32603312  0.31077737  0.96887039    -0.02800
C592        C  0.30449000  0.28802256  0.96965162    -0.05600
C593        C  0.28590598  0.28343806  0.99450733    -0.16300
C594        C  0.28801057  0.30333982  0.01918015     0.02600
C595        C  0.35185678  0.35351492  0.99509541     0.12500
C596        C  0.34687251  0.31342698  0.94218172     0.63200
H597        H  0.30180223  0.27344061  0.95062070     0.12600
C598        C  0.26938872  0.30115510  0.04734724     0.55300
H599        H  0.31112101  0.34180731  0.03680901     0.08400
C600        C  0.34726522  0.38339267  0.98603187    -0.05500
C601        C  0.37171818  0.40314531  0.98634815    -0.06200
C602        C  0.40026413  0.39435071  0.99655841    -0.15800
C603        C  0.40410450  0.36452773  0.00717023    -0.01400
C604        C  0.37977955  0.34468760  0.00590359    -0.08900
C605        C  0.31652287  0.39446599  0.97683730     0.65400
H606        H  0.36849751  0.42586043  0.97864857     0.10800
C607        C  0.43301350  0.35364799  0.02109053     0.63800
H608        H  0.38229869  0.32175914  0.01328882     0.08200
F609        F  0.25139879  0.32619125  0.04954384    -0.19300
F610        F  0.28802295  0.30014790  0.07197007    -0.15500
F611        F  0.25154366  0.27614663  0.04814588    -0.19000
F612        F  0.37600505  0.30899830  0.95123969    -0.22400
F613        F  0.34447229  0.34145469  0.92943410    -0.23900
F614        F  0.34041725  0.29248725  0.92037954    -0.17900
F615        F  0.43037137  0.32507228  0.03270000    -0.20300
F616        F  0.44079032  0.37252792  0.04423870    -0.21500
F617        F  0.45544868  0.35294614  0.99990276    -0.18700
F618        F  0.31696061  0.42425856  0.96850318    -0.18800
F619        F  0.29699826  0.39146184  0.00055101    -0.22600
F620        F  0.30584988  0.37809674  0.95298373    -0.24200
C621        C  0.68314708  0.47235712  0.82111709    -0.11000
C622        C  0.67730095  0.49744776  0.83875081     0.11600
C623        C  0.69675042  0.52234591  0.83793535    -0.02800
C624        C  0.71883989  0.52316009  0.81566063    -0.05600
C625        C  0.72271110  0.49904006  0.79608402    -0.16300
C626        C  0.70642482  0.47234528  0.80041667     0.02600
C627        C  0.65131560  0.49611507  0.85877948     0.12500
C628        C  0.69423352  0.54752934  0.86052529     0.63200
H629        H  0.73216983  0.54308107  0.81243246     0.12600
C630        C  0.71231636  0.44371931  0.78323685     0.55300
H631        H  0.66921373  0.45267739  0.82342053     0.08400
C632        C  0.62234666  0.50427753  0.84935295    -0.05500
C633        C  0.59871134  0.50212859  0.86993340    -0.06200
C634        C  0.60334224  0.49172672  0.89924870    -0.15800
C635        C  0.63257378  0.48188320  0.90778318    -0.01400
C636        C  0.65589934  0.48448939  0.88720066    -0.08900
C637        C  0.61664737  0.51512798  0.81769961     0.65400
H638        H  0.57655060  0.50916433  0.86337777     0.10800
C639        C  0.63996428  0.46858914  0.93822157     0.63800
H640        H  0.67832940  0.47773470  0.89318855     0.08200
F641        F  0.68917207  0.43866306  0.76350200    -0.19300
F642        F  0.71398199  0.42002579  0.80306676    -0.15500
F643        F  0.73880247  0.44449226  0.76743677    -0.19000
F644        F  0.69973936  0.53640482  0.88882549    -0.22400
F645        F  0.66597278  0.55986203  0.85991014    -0.23900
F646        F  0.71462731  0.57006978  0.85491815    -0.17900
F647        F  0.66799035  0.45555667  0.93881669    -0.20300
F648        F  0.61960785  0.44652103  0.94533034    -0.21500
F649        F  0.63967356  0.49085454  0.95965622    -0.18700
F650        F  0.58691436  0.52205773  0.81306219    -0.18800
F651        F  0.62460506  0.49310747  0.79755431    -0.22600
F652        F  0.63333866  0.54046685  0.81202753    -0.24200
C653        C  0.31198872  0.47644841  0.82768067    -0.11000
C654        C  0.32362850  0.50287734  0.83965300     0.11600
C655        C  0.31161461  0.53083071  0.83090026    -0.02800
C656        C  0.28886996  0.53130807  0.80929618    -0.05600
C657        C  0.27794917  0.50489060  0.79650671    -0.16300
C658        C  0.28901218  0.47692978  0.80638886     0.02600
C659        C  0.34924770  0.50045984  0.86042287     0.12500
C660        C  0.32354397  0.56002810  0.84338960     0.63200
H661        H  0.28084305  0.55246596  0.80066233     0.12600
C662        C  0.27702067  0.44776278  0.79408146     0.55300
H663        H  0.32169315  0.45538669  0.83463268     0.08400
C664        C  0.34568563  0.49086379  0.89023345    -0.05500
C665        C  0.37108939  0.48852310  0.90837206    -0.06200
C666        C  0.39981149  0.49638447  0.89809961    -0.15800
C667        C  0.40308918  0.50667398  0.86812658    -0.01400
C668        C  0.37770763  0.50751858  0.84963240    -0.08900
C669        C  0.31515162  0.48329459  0.90290833     0.65400
H670        H  0.36846971  0.48045193  0.93101908     0.10800
C671        C  0.43258528  0.51783318  0.85561729     0.63800
H672        H  0.37973321  0.51417057  0.82645206     0.08200
F673        F  0.24721506  0.44540658  0.80137073    -0.19300
F674        F  0.29165368  0.42320570  0.80594072    -0.15500
F675        F  0.28030061  0.44687366  0.76338784    -0.19000
F676        F  0.35246741  0.56452992  0.83372816    -0.22400
F677        F  0.32314542  0.55922571  0.87426280    -0.23900
F678        F  0.30660574  0.58424374  0.83422609    -0.17900
F679        F  0.42930191  0.53038942  0.82751844    -0.20300
F680        F  0.45248159  0.49436123  0.85314160    -0.21500
F681        F  0.44423468  0.53962241  0.87413877    -0.18700
F682        F  0.31623917  0.47824042  0.93339367    -0.18800
F683        F  0.30423840  0.45778258  0.88941298    -0.22600
F684        F  0.29557389  0.50666380  0.89789601    -0.24200
C685        C  0.38005727  0.48380249  0.14471421    -0.11000
C686        C  0.35119193  0.48922692  0.13407502     0.11600
C687        C  0.34694939  0.49837321  0.10421737    -0.02800
C688        C  0.37186553  0.49958400  0.08524835    -0.05600
C689        C  0.40093502  0.49253834  0.09522791    -0.16300
C690        C  0.40520667  0.48517725  0.12595283     0.02600
C691        C  0.32606217  0.48548002  0.15527044     0.12500
C692        C  0.31642931  0.50755548  0.09262253     0.63200
H693        H  0.36864354  0.50648240  0.06229738     0.12600
C694        C  0.43570388  0.47858466  0.13935828     0.55300
H695        H  0.38255996  0.47805983  0.16809135     0.08400
C696        C  0.31592779  0.45682922  0.16414937    -0.05500
C697        C  0.29490562  0.45487435  0.18733772    -0.06200
C698        C  0.28303150  0.48044939  0.20093618    -0.15800
C699        C  0.29271899  0.50910770  0.19157632    -0.01400
C700        C  0.31421099  0.51109375  0.16878527    -0.08900
C701        C  0.32742323  0.42845407  0.14942283     0.65400
H702        H  0.28864059  0.43321151  0.19604122     0.10800
C703        C  0.28155005  0.53739293  0.20658938     0.63800
H704        H  0.32284973  0.53267233  0.16207081     0.08200
F705        F  0.44922324  0.45533573  0.12413101    -0.19300
F706        F  0.43384407  0.47024448  0.16909214    -0.15500
F707        F  0.45332597  0.50392535  0.13786880    -0.19000
F708        F  0.30789529  0.53405991  0.10599232    -0.22400
F709        F  0.29555237  0.48574998  0.09904535    -0.23900
F710        F  0.31653857  0.51192897  0.06199361    -0.17900
F711        F  0.29489871  0.56275014  0.19492969    -0.20300
F712        F  0.28764830  0.53647974  0.23685468    -0.21500
F713        F  0.25116654  0.53994436  0.20241016    -0.18700
F714        F  0.31373115  0.40316116  0.16082468    -0.18800
F715        F  0.35775521  0.42548504  0.15396542    -0.22600
F716        F  0.32178612  0.42956784  0.11908129    -0.24200
C717        C  0.68584367  0.48585193  0.16772962    -0.11000
C718        C  0.67729488  0.51212312  0.15310968     0.11600
C719        C  0.68973196  0.53985970  0.16170728    -0.02800
C720        C  0.71014312  0.54027094  0.18558229    -0.05600
C721        C  0.71886078  0.51388173  0.20018791    -0.16300
C722        C  0.70636148  0.48619457  0.19134165     0.02600
C723        C  0.65265354  0.50985577  0.13133215     0.12500
C724        C  0.68072627  0.56884391  0.14638902     0.63200
H725        H  0.71816925  0.56140552  0.19408099     0.12600
C726        C  0.71332621  0.45730450  0.20775973     0.55300
H727        H  0.67531104  0.46510605  0.16111371     0.08400
C728        C  0.65720281  0.49970047  0.10190373    -0.05500
C729        C  0.63224948  0.49629905  0.08327290    -0.06200
C730        C  0.60286489  0.50205820  0.09326519    -0.15800
C731        C  0.59859381  0.51199265  0.12324449    -0.01400
C732        C  0.62375198  0.51549051  0.14165974    -0.08900
C733        C  0.68822615  0.49191150  0.09052588     0.65400
H734        H  0.63573299  0.48865125  0.06063637     0.10800
C735        C  0.56812554  0.51954369  0.13610432     0.63800
H736        H  0.62116141  0.52246357  0.16468138     0.08200
F737        F  0.74327676  0.45090761  0.20507050    -0.19300
F738        F  0.69749834  0.43334578  0.19632732    -0.15500
F739        F  0.70606068  0.45998336  0.23765359    -0.19000
F740        F  0.65088415  0.57465635  0.15150526    -0.22400
F741        F  0.68541522  0.56665182  0.11595525    -0.23900
F742        F  0.69708480  0.59291692  0.15678357    -0.17900
F743        F  0.56999637  0.53073665  0.16486882    -0.20300
F744        F  0.55067874  0.49415423  0.13727070    -0.21500
F745        F  0.55444698  0.54104052  0.11864611    -0.18700
F746        F  0.68806139  0.48465228  0.06047977    -0.18800
F747        F  0.69929069  0.46766776  0.10616486    -0.22600
F748        F  0.70727230  0.51587117  0.09434733    -0.24200
C749        C  0.87906969  0.64487703  0.98506732    -0.11000
C750        C  0.85015367  0.63413414  0.98974238     0.11600
C751        C  0.84582739  0.60446754  0.99947900    -0.02800
C752        C  0.87103802  0.58664461  0.00516071    -0.05600
C753        C  0.90037804  0.59671067  0.99936978    -0.16300
C754        C  0.90437990  0.62663757  0.98903139     0.02600
C755        C  0.82491327  0.65390548  0.98151714     0.12500
C756        C  0.81470835  0.59128684  0.00239610     0.63200
H757        H  0.86771708  0.56398778  0.01294739     0.12600
C758        C  0.93461900  0.63908086  0.98019066     0.55300
H759        H  0.88145597  0.66757739  0.97698496     0.08400
C760        C  0.81327437  0.67552990  0.00138341    -0.05500
C761        C  0.79061142  0.69473821  0.99111052    -0.06200
C762        C  0.78087605  0.69416766  0.96129418    -0.15800
C763        C  0.79286227  0.67268036  0.94134053    -0.01400
C764        C  0.81435049  0.65253377  0.95209377    -0.08900
C765        C  0.82624545  0.67970370  0.03245854     0.65400
H766        H  0.78196737  0.71200169  0.00568161     0.10800
C767        C  0.78460910  0.67014184  0.90853763     0.63800
H768        H  0.82392263  0.63619429  0.93696976     0.08200
F769        F  0.95340903  0.63962096  0.00468579    -0.19300
F770        F  0.93270301  0.66800727  0.96931219    -0.15500
F771        F  0.94666609  0.62149986  0.95784801    -0.19000
F772        F  0.80103264  0.59092991  0.97472191    -0.22400
F773        F  0.79768262  0.60823206  0.02174985    -0.23900
F774        F  0.81537222  0.56226427  0.01314419    -0.17900
F775        F  0.77363758  0.64176215  0.90310218    -0.20300
F776        F  0.80984781  0.67447097  0.89131672    -0.21500
F777        F  0.76340673  0.69059831  0.89946439    -0.18700
F778        F  0.81067473  0.70093656  0.04867614    -0.18800
F779        F  0.85554924  0.68902441  0.03016948    -0.22600
F780        F  0.82538255  0.65314363  0.04819183    -0.24200
C781        C  0.84816269  0.38538749  0.98196406    -0.11000
C782        C  0.85142770  0.35844252  0.99738969     0.11600
C783        C  0.87867566  0.35190899  0.01202412    -0.02800
C784        C  0.90167330  0.37338407  0.01140005    -0.05600
C785        C  0.89840715  0.40071943  0.99621271    -0.16300
C786        C  0.87111881  0.40672221  0.98085774     0.02600
C787        C  0.82703004  0.33623740  0.99464444     0.12500
C788        C  0.88375856  0.32202659  0.02737764     0.63200
H789        H  0.92248536  0.36894944  0.02284519     0.12600
C790        C  0.86601736  0.43498944  0.96261351     0.55300
H791        H  0.82729447  0.38938150  0.97043346     0.08400
C792        C  0.80288027  0.33456310  0.01500308    -0.05500
C793        C  0.78210917  0.31111322  0.01178713    -0.06200
C794        C  0.78360932  0.29129621  0.98752908    -0.15800
C795        C  0.80496256  0.29639370  0.96468910    -0.01400
C796        C  0.82716671  0.31787848  0.96936608    -0.08900
C797        C  0.79862040  0.35786616  0.03925146     0.65400
H798        H  0.76520506  0.30752479  0.02867985     0.10800
C799        C  0.80511766  0.28013168  0.93493254     0.63800
H800        H  0.84458269  0.32076517  0.95278697     0.08200
F801        F  0.86284937  0.45920833  0.98149565    -0.19300
F802        F  0.84040717  0.43324389  0.94540521    -0.15500
F803        F  0.88974801  0.43962293  0.94342162    -0.19000
F804        F  0.88241357  0.29930589  0.00652418    -0.22400
F805        F  0.86220793  0.31714827  0.04887365    -0.23900
F806        F  0.91132964  0.32074932  0.04124922    -0.17900
F807        F  0.80672230  0.30085561  0.91201074    -0.20300
F808        F  0.77968356  0.26329413  0.93035241    -0.21500
F809        F  0.82980810  0.26165669  0.93339635    -0.18700
F810        F  0.77392058  0.35175361  0.05678502    -0.18800
F811        F  0.79450374  0.38555801  0.02614682    -0.22600
F812        F  0.82329447  0.35910305  0.05765167    -0.24200
C813        C  0.18273831  0.67668310  0.99285916    -0.11000
C814        C  0.17527184  0.65621051  0.01533322     0.11600
C815        C  0.19074599  0.65645991  0.04284856    -0.02800
C816        C  0.21151275  0.67931438  0.04797056    -0.05600
C817        C  0.21852352  0.70028889  0.02585445    -0.16300
C818        C  0.20397397  0.69918223  0.99780529     0.02600
C819        C  0.14990763  0.63590771  0.00993077     0.12500
C820        C  0.18554693  0.63261994  0.06649471     0.63200
H821        H  0.22144182  0.68169196  0.06977055     0.12600
C822        C  0.20955656  0.72267292  0.97392672     0.55300
H823        H  0.17065334  0.67574290  0.97192969     0.08400
C824        C  0.12037383  0.64405891  0.01744737    -0.05500
C825        C  0.09753533  0.62293966  0.01341167    -0.06200
C826        C  0.10319033  0.59475253  0.00069174    -0.15800
C827        C  0.13248192  0.58824615  0.98993650    -0.01400
C828        C  0.15547623  0.60876795  0.99561072    -0.08900
C829        C  0.11306882  0.67507884  0.02926554     0.65400
H830        H  0.07512264  0.62821746  0.02069683     0.10800
C831        C  0.13980860  0.56042383  0.97181032     0.63800
H832        H  0.17817060  0.60376166  0.98894624     0.08200
F833        F  0.19399907  0.71663214  0.94791204    -0.19300
F834        F  0.23956898  0.72367601  0.96705509    -0.15500
F835        F  0.20054738  0.75040773  0.98413038    -0.19000
F836        F  0.19259025  0.60488701  0.05485460    -0.22400
F837        F  0.15608414  0.63250245  0.07548084    -0.23900
F838        F  0.20308628  0.63721747  0.09153311    -0.17900
F839        F  0.16681165  0.56320484  0.95704524    -0.20300
F840        F  0.11811840  0.55576353  0.95033989    -0.21500
F841        F  0.14168102  0.53580346  0.99042759    -0.18700
F842        F  0.08273259  0.67892172  0.03349138    -0.18800
F843        F  0.12254290  0.69645941  0.00907092    -0.22600
F844        F  0.12715985  0.67986302  0.05627583    -0.24200
C845        C  0.15057423  0.38073853  0.01575962    -0.11000
C846        C  0.14907061  0.35722349  0.99529543     0.11600
C847        C  0.12387897  0.35435934  0.97642723    -0.02800
C848        C  0.10078285  0.37554936  0.97872780    -0.05600
C849        C  0.10251938  0.39960756  0.99872965    -0.16300
C850        C  0.12801328  0.40247065  0.01753654     0.02600
C851        C  0.17333397  0.33472413  0.99562701     0.12500
C852        C  0.12154499  0.32911855  0.95387594     0.63200
H853        H  0.08136434  0.37382810  0.96444705     0.12600
C854        C  0.13153131  0.42792292  0.03977183     0.55300
H855        H  0.16987723  0.38198874  0.03024656     0.08400
C856        C  0.20093275  0.33912729  0.98086765    -0.05500
C857        C  0.22156833  0.31535551  0.98016260    -0.06200
C858        C  0.21571183  0.28820578  0.99477515    -0.15800
C859        C  0.18933936  0.28525384  0.01220129    -0.01400
C860        C  0.16833546  0.30840053  0.01165708    -0.08900
C861        C  0.20821901  0.36853347  0.96559169     0.65400
H862        H  0.24180806  0.31739043  0.96715335     0.10800
C863        C  0.18171455  0.25806479  0.03117225     0.63800
H864        H  0.14754279  0.30586247  0.02379370     0.08200
F865        F  0.13650355  0.45445625  0.02471335    -0.19300
F866        F  0.15543292  0.42338923  0.05884549    -0.15500
F867        F  0.10611657  0.43036485  0.05706888    -0.19000
F868        F  0.12006530  0.30198175  0.96857347    -0.22400
F869        F  0.14621686  0.32923153  0.93535281    -0.23900
F870        F  0.09638411  0.33184434  0.93615130    -0.17900
F871        F  0.17129580  0.26728046  0.05878109    -0.20300
F872        F  0.20584119  0.23955636  0.03632741    -0.21500
F873        F  0.15954832  0.24183396  0.01714283    -0.18700
F874        F  0.23566397  0.36761597  0.95144803    -0.18800
F875        F  0.20903647  0.39119956  0.98654021    -0.22600
F876        F  0.18675924  0.37516002  0.94443160    -0.24200
C877        C  0.82908822  0.53468291  0.81517151    -0.11000
C878        C  0.83401889  0.50824456  0.83124589     0.11600
C879        C  0.81569580  0.48306412  0.82589035    -0.02800
C880        C  0.79432623  0.48462486  0.80292689    -0.05600
C881        C  0.78982466  0.51079945  0.78621918    -0.16300
C882        C  0.80674926  0.53666021  0.79315111     0.02600
C883        C  0.85776626  0.50799429  0.85442732     0.12500
C884        C  0.81809420  0.45504717  0.84494569     0.63200
H885        H  0.78067690  0.46540257  0.79791655     0.12600
C886        C  0.80142592  0.56645442  0.77797747     0.55300
H887        H  0.84289185  0.55393101  0.82009669     0.08400
C888        C  0.88717270  0.49860107  0.84808124    -0.05500
C889        C  0.90769293  0.49625567  0.87178677    -0.06200
C890        C  0.90066718  0.50583870  0.90097399    -0.15800
C891        C  0.87227778  0.51936923  0.90603683    -0.01400
C892        C  0.85090989  0.51885944  0.88293657    -0.08900
C893        C  0.89719608  0.49281343  0.81616642     0.65400
H894        H  0.92973209  0.48740983  0.86739606     0.10800
C895        C  0.86504699  0.53645529  0.93448084     0.63800
H896        H  0.82867538  0.52755081  0.88674875     0.08200
F897        F  0.81712330  0.56743426  0.75146791    -0.19300
F898        F  0.81098944  0.58987343  0.79576440    -0.15500
F899        F  0.77140495  0.57078409  0.77246626    -0.19000
F900        F  0.81264824  0.46215406  0.87449900    -0.22400
F901        F  0.84629280  0.44283244  0.84261208    -0.23900
F902        F  0.79767476  0.43349654  0.83636391    -0.17900
F903        F  0.83909463  0.55302913  0.93165911    -0.20300
F904        F  0.88791917  0.55619769  0.94076411    -0.21500
F905        F  0.86127450  0.51695573  0.95810511    -0.18700
F906        F  0.92696339  0.48470533  0.81476067    -0.18800
F907        F  0.89353284  0.51859888  0.79948939    -0.22600
F908        F  0.88053565  0.47022206  0.80342698    -0.24200
C909        C  0.14561131  0.48778078  0.87419808    -0.11000
C910        C  0.13921009  0.50525388  0.84896636     0.11600
C911        C  0.11128210  0.51992972  0.84695537    -0.02800
C912        C  0.09151878  0.51820022  0.87147886    -0.05600
C913        C  0.09821128  0.50132736  0.89727306    -0.16300
C914        C  0.12549216  0.48512663  0.89826077     0.02600
C915        C  0.16222323  0.50660689  0.82488766     0.12500
C916        C  0.10164108  0.53583433  0.81849657     0.63200
H917        H  0.07030961  0.52975054  0.87046595     0.12600
C918        C  0.13318375  0.46431122  0.92398571     0.55300
H919        H  0.16679916  0.47614994  0.87484761     0.08400
C920        C  0.18526366  0.52825955  0.82492172    -0.05500
C921        C  0.20760123  0.52664495  0.80279416    -0.06200
C922        C  0.20930697  0.50279703  0.78238465    -0.15800
C923        C  0.18717794  0.48004803  0.78378138    -0.01400
C924        C  0.16338473  0.48314210  0.80415958    -0.08900
C925        C  0.18720349  0.55200278  0.84914689     0.65400
H926        H  0.22454465  0.54378985  0.80163318     0.10800
C927        C  0.18828021  0.45117095  0.76618870     0.63800
H928        H  0.14637641  0.46594386  0.80518316     0.08200
F929        F  0.13932907  0.48085268  0.94930581    -0.19300
F930        F  0.15797054  0.44693522  0.91772421    -0.15500
F931        F  0.10960235  0.44516253  0.92958005    -0.19000
F932        F  0.09872638  0.51514222  0.79577502    -0.22400
F933        F  0.12242560  0.55694811  0.81001880    -0.23900
F934        F  0.07453000  0.55027436  0.82202077    -0.17900
F935        F  0.18571202  0.42721489  0.78561785    -0.20300
F936        F  0.21454146  0.44756140  0.75074133    -0.21500
F937        F  0.16476435  0.45039456  0.74624103    -0.18700
F938        F  0.21176510  0.57034702  0.84531285    -0.18800
F939        F  0.18967274  0.53840602  0.87677776    -0.22600
F940        F  0.16204607  0.56980366  0.84900248    -0.24200
C941        C  0.11917460  0.47598669  0.14827533    -0.11000
C942        C  0.14685306  0.48936445  0.14297673     0.11600
C943        C  0.15289883  0.50192091  0.11461705    -0.02800
C944        C  0.12980544  0.50303470  0.09319619    -0.05600
C945        C  0.10146267  0.49051783  0.09871077    -0.16300
C946        C  0.09655438  0.47552229  0.12646397     0.02600
C947        C  0.16978441  0.48757872  0.16696547     0.12500
C948        C  0.18398887  0.51289094  0.10676847     0.63200
H949        H  0.13391322  0.51348884  0.07176688     0.12600
C950        C  0.06857071  0.45735722  0.13274346     0.55300
H951        H  0.11564347  0.46541076  0.16976533     0.08400
C952        C  0.17238324  0.50948637  0.18965291    -0.05500
C953        C  0.19503938  0.50624287  0.21128563    -0.06200
C954        C  0.21363569  0.48097361  0.21200275    -0.15800
C955        C  0.20809165  0.45730237  0.19161948    -0.01400
C956        C  0.18737881  0.46176116  0.16849544    -0.08900
C957        C  0.15077875  0.53557651  0.19147714     0.65400
H958        H  0.19832106  0.52332506  0.22801456     0.10800
C959        C  0.22126408  0.42619411  0.19439117     0.63800
H960        H  0.18379465  0.44418213  0.15221224     0.08200
F961        F  0.04431025  0.47603857  0.13650235    -0.19300
F962        F  0.07127297  0.44032023  0.15844771    -0.15500
F963        F  0.06342032  0.43795409  0.10929150    -0.19000
F964        F  0.20379577  0.48920717  0.10802893    -0.22400
F965        F  0.19306916  0.53460423  0.12671086    -0.23900
F966        F  0.18515317  0.52494764  0.07830516    -0.17900
F967        F  0.19835309  0.40548627  0.19480425    -0.20300
F968        F  0.23760656  0.42214083  0.22021350    -0.21500
F969        F  0.23918476  0.42043079  0.16992866    -0.18700
F970        F  0.15657274  0.55362333  0.21590440    -0.18800
F971        F  0.12195651  0.52494372  0.19418743    -0.22600
F972        F  0.15273741  0.55291882  0.16601288    -0.24200
C973        C  0.88524163  0.49811498  0.15300659    -0.11000
C974        C  0.85546824  0.49599572  0.14402994     0.11600
C975        C  0.84861132  0.49426289  0.11327565    -0.02800
C976        C  0.87215968  0.49386156  0.09242526    -0.05600
C977        C  0.90239713  0.49586620  0.10112361    -0.16300
C978        C  0.90898946  0.49792662  0.13237978     0.02600
C979        C  0.83195860  0.49834847  0.16741322     0.12500
C980        C  0.81646541  0.49344057  0.10253617     0.63200
H981        H  0.86681778  0.49243173  0.06890769     0.12600
C982        C  0.94053681  0.50072634  0.14458891     0.55300
H983        H  0.88961785  0.50043242  0.17668007     0.08400
C984        C  0.82448710  0.47438861  0.18674498    -0.05500
C985        C  0.80238434  0.47901781  0.20869931    -0.06200
C986        C  0.78771779  0.50659456  0.21183307    -0.15800
C987        C  0.79689154  0.53104239  0.19377274    -0.01400
C988        C  0.81839670  0.52621528  0.17151352    -0.08900
C989        C  0.83946475  0.44404979  0.18393636     0.65400
H990        H  0.79616152  0.46101893  0.22349855     0.10800
C991        C  0.78596975  0.56291278  0.19747157     0.63800
H992        H  0.82533324  0.54476248  0.15752173     0.08200
F993        F  0.95707204  0.47575766  0.13702188    -0.19300
F994        F  0.94109003  0.50295918  0.17543231    -0.15500
F995        F  0.95373264  0.52622307  0.13318846    -0.19000
F996        F  0.80246828  0.52011635  0.10935219    -0.22400
F997        F  0.80138974  0.47025945  0.11629197    -0.23900
F998        F  0.81458529  0.48930986  0.07195121    -0.17900
F999        F  0.81020214  0.58196793  0.19909082    -0.20300
F1000       F  0.76929238  0.56720480  0.22302516    -0.21500
F1001       F  0.76912530  0.57074405  0.17280576    -0.18700
F1002       F  0.82849167  0.42378077  0.20458124    -0.18800
F1003       F  0.86979737  0.44673033  0.18865672    -0.22600
F1004       F  0.83462076  0.43260149  0.15567967    -0.24200
C1005       C  0.53678792  0.30076705  0.82981564    -0.11000
C1006       C  0.50952465  0.31321213  0.83888676     0.11600
C1007       C  0.48259047  0.30247877  0.82628331    -0.02800
C1008       C  0.48406367  0.28082443  0.80354560    -0.05600
C1009       C  0.51140005  0.26953501  0.79334739    -0.16300
C1010       C  0.53816768  0.27886496  0.80724276     0.02600
C1011       C  0.50990497  0.33902772  0.85988704     0.12500
C1012       C  0.45249126  0.31458080  0.83610091     0.63200
H1013       H  0.46391030  0.27381382  0.79221172     0.12600
C1014       C  0.56804307  0.26633436  0.79755477     0.55300
H1015       H  0.55709213  0.30920980  0.83980392     0.08400
C1016       C  0.51115881  0.33525644  0.89110726    -0.05500
C1017       C  0.50851322  0.36065083  0.90946617    -0.06200
C1018       C  0.50672809  0.39009065  0.89781090    -0.15800
C1019       C  0.50842597  0.39372039  0.86613260    -0.01400
C1020       C  0.50922552  0.36796937  0.84788624    -0.08900
C1021       C  0.51671864  0.30468438  0.90488587     0.65400
H1022       H  0.50861368  0.35738550  0.93339940     0.10800
C1023       C  0.50996428  0.42417693  0.85115728     0.63800
H1024       H  0.50935513  0.37011551  0.82378525     0.08200
F1025       F  0.56809900  0.23577322  0.80180287    -0.19300
F1026       F  0.59137035  0.27823162  0.81391986    -0.15500
F1027       F  0.57301518  0.27258422  0.76770189    -0.19000
F1028       F  0.45075634  0.34482964  0.83006072    -0.22400
F1029       F  0.44877576  0.31007191  0.86641785    -0.23900
F1030       F  0.42917967  0.30056498  0.82145853    -0.17900
F1031       F  0.51362323  0.42193121  0.82052219    -0.20300
F1032       F  0.53406332  0.44002866  0.86215468    -0.21500
F1033       F  0.48385367  0.43976543  0.85633954    -0.18700
F1034       F  0.51509899  0.30541677  0.93575831    -0.18800
F1035       F  0.54493746  0.29498648  0.89703175    -0.22600
F1036       F  0.49596765  0.28424468  0.89475864    -0.24200
C1037       C  0.52045633  0.68647730  0.83522856    -0.11000
C1038       C  0.49558977  0.66768360  0.83768535     0.11600
C1039       C  0.47131408  0.67094506  0.81778502    -0.02800
C1040       C  0.47368375  0.69203183  0.79478466    -0.05600
C1041       C  0.49902307  0.71014434  0.79148891    -0.16300
C1042       C  0.52320464  0.70692028  0.81153520     0.02600
C1043       C  0.49689324  0.64261420  0.85913010     0.12500
C1044       C  0.44363575  0.65139152  0.81995330     0.63200
H1045       H  0.45626073  0.69348994  0.77811100     0.12600
C1046       C  0.55255526  0.72304992  0.80667100     0.55300
H1047       H  0.53849099  0.68367740  0.85107531     0.08400
C1048       C  0.51420181  0.61674133  0.85334273    -0.05500
C1049       C  0.51286349  0.59285230  0.87363513    -0.06200
C1050       C  0.49508294  0.59431894  0.89933186    -0.15800
C1051       C  0.47731754  0.62014772  0.90477449    -0.01400
C1052       C  0.47920744  0.64418421  0.88477495    -0.08900
C1053       C  0.53452334  0.61461802  0.82625166     0.65400
H1054       H  0.52653822  0.57319857  0.87010411     0.10800
C1055       C  0.45574609  0.62234222  0.93095308     0.63800
H1056       H  0.46662652  0.66445532  0.88886558     0.08200
F1057       F  0.57432558  0.71336507  0.82637102    -0.19300
F1058       F  0.54863697  0.75330888  0.81088448    -0.15500
F1059       F  0.56284181  0.71794139  0.77798539    -0.19000
F1060       F  0.42937532  0.65628168  0.84687824    -0.22400
F1061       F  0.45152548  0.62157437  0.81788449    -0.23900
F1062       F  0.42340918  0.65753896  0.79739704    -0.17900
F1063       F  0.47128602  0.62766869  0.95709118    -0.20300
F1064       F  0.43964399  0.59610430  0.93359910    -0.21500
F1065       F  0.43548468  0.64540913  0.92716167    -0.18700
F1066       F  0.54636115  0.58622265  0.82297524    -0.18800
F1067       F  0.55797113  0.63440786  0.82935758    -0.22600
F1068       F  0.51885568  0.62140706  0.80051366    -0.24200
C1069       C  0.46699284  0.68643452  0.14751607    -0.11000
C1070       C  0.49180428  0.66816624  0.15306897     0.11600
C1071       C  0.51059073  0.67424617  0.17767095    -0.02800
C1072       C  0.50236192  0.69714707  0.19746709    -0.05600
C1073       C  0.47607323  0.71372130  0.19343810    -0.16300
C1074       C  0.45839041  0.70892863  0.16769205     0.02600
C1075       C  0.49617981  0.64153119  0.13393703     0.12500
C1076       C  0.53884829  0.65634280  0.18328022     0.63200
H1077       H  0.51556611  0.70125302  0.21730947     0.12600
C1078       C  0.43003836  0.72652846  0.16213530     0.55300
H1079       H  0.45349055  0.68174754  0.12801169     0.08400
C1080       C  0.47885153  0.61530662  0.13783054    -0.05500
C1081       C  0.48292611  0.59145537  0.11787749    -0.06200
C1082       C  0.50356939  0.59317183  0.09444536    -0.15800
C1083       C  0.52236640  0.61857521  0.09187797    -0.01400
C1084       C  0.51795289  0.64263646  0.11155024    -0.08900
C1085       C  0.45601434  0.61257801  0.16278341     0.65400
H1086       H  0.46908361  0.57169653  0.11965987     0.10800
C1087       C  0.54722790  0.62026377  0.06885063     0.63800
H1088       H  0.53112450  0.66279358  0.10925804     0.08200
F1089       F  0.41540976  0.71712413  0.13658630    -0.19300
F1090       F  0.43698473  0.75633153  0.15850780    -0.15500
F1091       F  0.41072733  0.72320623  0.18598444    -0.19000
F1092       F  0.55968109  0.66323545  0.16158598    -0.22400
F1093       F  0.53296643  0.62601311  0.18240589    -0.23900
F1094       F  0.55112886  0.66271539  0.21091916    -0.17900
F1095       F  0.53536526  0.62530446  0.04080615    -0.20300
F1096       F  0.56328233  0.59382329  0.06867745    -0.21500
F1097       F  0.56692002  0.64325058  0.07508596    -0.18700
F1098       F  0.44327343  0.58439920  0.16370179    -0.18800
F1099       F  0.43339216  0.63315285  0.15862999    -0.22600
F1100       F  0.46953394  0.61772895  0.19004986    -0.24200
C1101       C  0.49771870  0.30853717  0.16606134    -0.11000
C1102       C  0.52331864  0.31532055  0.14958666     0.11600
C1103       C  0.55079491  0.30127816  0.15639523    -0.02800
C1104       C  0.55155332  0.28066217  0.18012462    -0.05600
C1105       C  0.52586880  0.27401838  0.19671355    -0.16300
C1106       C  0.49854741  0.28836359  0.18992578     0.02600
C1107       C  0.52085680  0.34016846  0.12811769     0.12500
C1108       C  0.57904190  0.30814539  0.13886974     0.63200
H1109       H  0.57244085  0.27049830  0.18668245     0.12600
C1110       C  0.47080833  0.28387888  0.20887676     0.55300
H1111       H  0.47730116  0.32043543  0.16089981     0.08400
C1112       C  0.50711561  0.33656068  0.10006614    -0.05500
C1113       C  0.50227699  0.36204005  0.08252616    -0.06200
C1114       C  0.51086332  0.39088714  0.09196590    -0.15800
C1115       C  0.52595740  0.39403583  0.11970519    -0.01400
C1116       C  0.52971869  0.36859172  0.13771242    -0.08900
C1117       C  0.49727944  0.30602654  0.08887920     0.65400
H1118       H  0.49170087  0.35937199  0.06102721     0.10800
C1119       C  0.53923232  0.42347281  0.12998391     0.63800
H1120       H  0.53970611  0.37060105  0.15965555     0.08200
F1121       F  0.44653602  0.29941826  0.19769732    -0.19300
F1122       F  0.47596729  0.29376131  0.23766297    -0.15500
F1123       F  0.46338942  0.25402704  0.20957721    -0.19000
F1124       F  0.58558968  0.33828588  0.14027064    -0.22400
F1125       F  0.57521110  0.30012883  0.10932676    -0.23900
F1126       F  0.60339210  0.29264132  0.14991690    -0.17900
F1127       F  0.51661052  0.44338775  0.13664705    -0.20300
F1128       F  0.55730624  0.43508272  0.10776557    -0.21500
F1129       F  0.55662536  0.42006239  0.15532010    -0.18700
F1130       F  0.48765825  0.30710249  0.05951486    -0.18800
F1131       F  0.47407565  0.29548224  0.10624441    -0.22600
F1132       F  0.52073797  0.28604037  0.09035264    -0.24200
C1133       C  0.61180832  0.14657199  0.00753465    -0.11000
C1134       C  0.63704443  0.14508949  0.98929154     0.11600
C1135       C  0.64200800  0.11939710  0.97144375    -0.02800
C1136       C  0.62113599  0.09580823  0.97254734    -0.05600
C1137       C  0.59573100  0.09721778  0.99091473    -0.16300
C1138       C  0.59088204  0.12322492  0.00866324     0.02600
C1139       C  0.65982394  0.16893708  0.99274332     0.12500
C1140       C  0.66948400  0.11681692  0.95172562     0.63200
H1141       H  0.62450531  0.07602493  0.95902975     0.12600
C1142       C  0.56439484  0.12619510  0.02967170     0.55300
H1143       H  0.60895980  0.16619510  0.02140495     0.08400
C1144       C  0.65870970  0.19656919  0.97726110    -0.05500
C1145       C  0.68264283  0.21678151  0.98062547    -0.06200
C1146       C  0.70635912  0.21075627  0.00024259    -0.15800
C1147       C  0.70510950  0.18479176  0.01856968    -0.01400
C1148       C  0.68234466  0.16395934  0.01374469    -0.08900
C1149       C  0.63246686  0.20458480  0.95742487     0.65400
H1150       H  0.68360400  0.23673703  0.96697955     0.10800
C1151       C  0.72715558  0.17768864  0.04338466     0.63800
H1152       H  0.68204010  0.14344131  0.02668842     0.08200
F1153       F  0.53848269  0.12991392  0.01333412    -0.19300
F1154       F  0.56711412  0.15060802  0.04845454    -0.15500
F1155       F  0.56219221  0.10093998  0.04737683    -0.19000
F1156       F  0.69490943  0.11685902  0.96917663    -0.22400
F1157       F  0.67069669  0.14065808  0.93211177    -0.23900
F1158       F  0.66933844  0.09075265  0.93507332    -0.17900
F1159       F  0.71169383  0.17026632  0.06910240    -0.20300
F1160       F  0.74557725  0.20141155  0.05034253    -0.21500
F1161       F  0.74451424  0.15353790  0.03501479    -0.18700
F1162       F  0.63614084  0.23226235  0.94405023    -0.18800
F1163       F  0.60672346  0.20554869  0.97438922    -0.22600
F1164       F  0.62909278  0.18349809  0.93516140    -0.24200
C1165       C  0.39106441  0.83619591  0.99459474    -0.11000
C1166       C  0.36364656  0.84257259  0.00786439     0.11600
C1167       C  0.35665412  0.87220725  0.01630329    -0.02800
C1168       C  0.37794498  0.89473036  0.01132547    -0.05600
C1169       C  0.40594145  0.88850713  0.99845318    -0.16300
C1170       C  0.41237170  0.85856900  0.98921561     0.02600
C1171       C  0.34306519  0.81737673  0.01353568     0.12500
C1172       C  0.32699320  0.87985940  0.03089665     0.63200
H1173       H  0.37307328  0.91736216  0.01834164     0.12600
C1174       C  0.44106013  0.84965466  0.97330655     0.55300
H1175       H  0.39571018  0.81316611  0.98875287     0.08400
C1176       C  0.32400222  0.80604465  0.99106469    -0.05500
C1177       C  0.30312898  0.78402380  0.99897617    -0.06200
C1178       C  0.30151566  0.77278772  0.02818964    -0.15800
C1179       C  0.32211813  0.78245953  0.04997213    -0.01400
C1180       C  0.34283453  0.80466684  0.04217483    -0.08900
C1181       C  0.32545695  0.81747798  0.95912484     0.65400
H1182       H  0.28686124  0.77644112  0.98278312     0.10800
C1183       C  0.32206518  0.76931667  0.08119163     0.63800
H1184       H  0.35851248  0.81295804  0.05859825     0.08200
F1185       F  0.44593840  0.86838442  0.94919345    -0.19300
F1186       F  0.43981202  0.82068278  0.96247626    -0.15500
F1187       F  0.46490771  0.85107707  0.99283936    -0.19000
F1188       F  0.32449585  0.86513677  0.05793827    -0.22400
F1189       F  0.30373709  0.87126405  0.01255828    -0.23900
F1190       F  0.32420291  0.91021436  0.03623405    -0.17900
F1191       F  0.32797934  0.73906455  0.07942727    -0.20300
F1192       F  0.29460170  0.77356245  0.09458625    -0.21500
F1193       F  0.34353480  0.78231133  0.09919755    -0.18700
F1194       F  0.30369749  0.80468526  0.94131974    -0.18800
F1195       F  0.35293437  0.81058295  0.94693524    -0.22600
F1196       F  0.32152717  0.84812301  0.95849044    -0.24200
C1197       C  0.62188868  0.84428601  0.99766680    -0.11000
C1198       C  0.64341281  0.84711182  0.97521350     0.11600
C1199       C  0.64435613  0.87336601  0.95752396    -0.02800
C1200       C  0.62409437  0.89662566  0.96380054    -0.05600
C1201       C  0.60215187  0.89368026  0.98602090    -0.16300
C1202       C  0.60097960  0.86701716  0.00336847     0.02600
C1203       C  0.66437409  0.82181509  0.97057229     0.12500
C1204       C  0.66588469  0.87625588  0.93145302     0.63200
H1205       H  0.62430818  0.91680159  0.95040339     0.12600
C1206       C  0.57800853  0.86234910  0.02796318     0.55300
H1207       H  0.62136921  0.82371835  0.01044819     0.08400
C1208       C  0.69057077  0.81867660  0.98786483    -0.05500
C1209       C  0.70994190  0.79479241  0.98156660    -0.06200
C1210       C  0.70388869  0.77398339  0.95885071    -0.15800
C1211       C  0.67758767  0.77713353  0.94164137    -0.01400
C1212       C  0.65773966  0.80061897  0.94845701    -0.08900
C1213       C  0.69837912  0.84090677  0.01232130     0.65400
H1214       H  0.73088304  0.79299327  0.99346844     0.10800
C1215       C  0.67138425  0.75695701  0.91518584     0.63800
H1216       H  0.63735029  0.80338623  0.93578166     0.08200
F1217       F  0.57723307  0.88701641  0.04656689    -0.19300
F1218       F  0.58459596  0.83758844  0.04534075    -0.15500
F1219       F  0.55012638  0.85787416  0.01557580    -0.19000
F1220       F  0.65999944  0.85423237  0.91064245    -0.22400
F1221       F  0.69495444  0.87323990  0.94123811    -0.23900
F1222       F  0.66328926  0.90366932  0.91731256    -0.17900
F1223       F  0.66883028  0.72774616  0.92470955    -0.20300
F1224       F  0.69445252  0.75907428  0.89478072    -0.21500
F1225       F  0.64516381  0.76464799  0.90075579    -0.18700
F1226       F  0.72508599  0.83386604  0.02616563    -0.18800
F1227       F  0.67631086  0.84103251  0.03387195    -0.22600
F1228       F  0.70096128  0.86930170  0.00042048    -0.24200
C1229       C  0.35671984  0.11848716  0.97833947    -0.11000
C1230       C  0.36617622  0.14535234  0.99145123     0.11600
C1231       C  0.39352920  0.14624927  0.00704060    -0.02800
C1232       C  0.41103083  0.12015396  0.00818141    -0.05600
C1233       C  0.40212228  0.09317156  0.99442542    -0.16300
C1234       C  0.37421531  0.09226187  0.97941463     0.02600
C1235       C  0.34553610  0.17135468  0.99065084     0.12500
C1236       C  0.40408870  0.17460716  0.02253263     0.63200
H1237       H  0.43206280  0.12069045  0.02005376     0.12600
C1238       C  0.36303388  0.06418422  0.96405689     0.55300
H1239       H  0.33523117  0.11828180  0.96729809     0.08400
C1240       C  0.34169160  0.18943505  0.96491051    -0.05500
C1241       C  0.31843772  0.21065070  0.96467988    -0.06200
C1242       C  0.30001492  0.21495778  0.98965680    -0.15800
C1243       C  0.30545151  0.19839647  0.01606883    -0.01400
C1244       C  0.32787100  0.17647822  0.01591962    -0.08900
C1245       C  0.36141975  0.18577375  0.93757745     0.65400
H1246       H  0.31340622  0.22278101  0.94437124     0.10800
C1247       C  0.28716694  0.20341242  0.04411124     0.63800
H1248       H  0.33122996  0.16240179  0.03532911     0.08200
F1249       F  0.38391837  0.05434761  0.94354124    -0.19300
F1250       F  0.33656135  0.06912179  0.94891275    -0.15500
F1251       F  0.35794250  0.04212162  0.98510160    -0.19000
F1252       F  0.38540539  0.18125583  0.04616824    -0.22400
F1253       F  0.40398435  0.19832569  0.00272635    -0.23900
F1254       F  0.43275778  0.17163385  0.03361271    -0.17900
F1255       F  0.29647632  0.18534002  0.06744168    -0.20300
F1256       F  0.25742372  0.19740370  0.03869753    -0.21500
F1257       F  0.29027228  0.23275638  0.05301897    -0.18700
F1258       F  0.35551390  0.20737364  0.91618937    -0.18800
F1259       F  0.35679892  0.15803243  0.92487213    -0.22600
F1260       F  0.39106721  0.18831447  0.94558645    -0.24200
C1261       C  0.51440198  0.13756274  0.87068474    -0.11000
C1262       C  0.50294854  0.12987469  0.84269987     0.11600
C1263       C  0.49096863  0.10107927  0.83809486    -0.02800
C1264       C  0.48830466  0.08172999  0.86283007    -0.05600
C1265       C  0.49892802  0.08965917  0.89147937    -0.16300
C1266       C  0.51328014  0.11785699  0.89511461     0.02600
C1267       C  0.50403815  0.15304888  0.81900035     0.12500
C1268       C  0.48226348  0.09057478  0.80703979     0.63200
H1269       H  0.47845517  0.05986643  0.85970718     0.12600
C1270       C  0.52882032  0.12696345  0.92388250     0.55300
H1271       H  0.52434121  0.15948631  0.87313684     0.08400
C1272       C  0.48260812  0.17623731  0.81777304    -0.05500
C1273       C  0.48691304  0.19973504  0.79741088    -0.06200
C1274       C  0.51195553  0.20106017  0.77864128    -0.15800
C1275       C  0.53378426  0.17807390  0.78039916    -0.01400
C1276       C  0.52903256  0.15410367  0.80021796    -0.08900
C1277       C  0.45538269  0.17622411  0.83802247     0.65400
H1278       H  0.47044788  0.21731468  0.79561944     0.10800
C1279       C  0.56306027  0.17828913  0.76343093     0.63800
H1280       H  0.54573963  0.13665608  0.80208489     0.08200
F1281       F  0.50810639  0.13088318  0.94642470    -0.19300
F1282       F  0.54428334  0.15356573  0.92078660    -0.15500
F1283       F  0.54920852  0.10519435  0.93193293    -0.19000
F1284       F  0.50724847  0.09016302  0.78892658    -0.22400
F1285       F  0.46131538  0.10960474  0.79473934    -0.23900
F1286       F  0.47035247  0.06206052  0.80746690    -0.17900
F1287       F  0.58635931  0.17411776  0.78328978    -0.20300
F1288       F  0.56818218  0.20481943  0.74853503    -0.21500
F1289       F  0.56324619  0.15509555  0.74302561    -0.18700
F1290       F  0.43690419  0.20040122  0.83245678    -0.18800
F1291       F  0.46413907  0.17761191  0.86758485    -0.22600
F1292       F  0.43903988  0.15042792  0.83360036    -0.24200
C1293       C  0.52138344  0.84685404  0.87008328    -0.11000
C1294       C  0.50121975  0.84992626  0.84628016     0.11600
C1295       C  0.48205261  0.87514888  0.84534448    -0.02800
C1296       C  0.48289611  0.89577955  0.86909903    -0.05600
C1297       C  0.50277507  0.89250757  0.89313676    -0.16300
C1298       C  0.52318494  0.86825856  0.89312588     0.02600
C1299       C  0.50056798  0.82622221  0.82281877     0.12500
C1300       C  0.46123890  0.88065809  0.81912398     0.63200
H1301       H  0.46789389  0.91477371  0.86912257     0.12600
C1302       C  0.54779799  0.86586286  0.91633346     0.55300
H1303       H  0.53595132  0.82753790  0.87033802     0.08400
C1304       C  0.52248035  0.82425449  0.80011334    -0.05500
C1305       C  0.52029485  0.80116779  0.77884508    -0.06200
C1306       C  0.49710017  0.78005313  0.77940724    -0.15800
C1307       C  0.47466352  0.78267545  0.80169076    -0.01400
C1308       C  0.47743572  0.80513559  0.82355676    -0.08900
C1309       C  0.54854269  0.84587478  0.79875162     0.65400
H1310       H  0.53754303  0.79856070  0.76217815     0.10800
C1311       C  0.44682559  0.76354352  0.80293485     0.63800
H1312       H  0.46079714  0.80677640  0.84106804     0.08200
F1313       F  0.56817304  0.84372707  0.90921218    -0.19300
F1314       F  0.53577290  0.85916294  0.94396184    -0.15500
F1315       F  0.56310842  0.89266881  0.91798889    -0.19000
F1316       F  0.44010112  0.85826807  0.81754234    -0.22400
F1317       F  0.47735289  0.88123596  0.79280153    -0.23900
F1318       F  0.44645774  0.90771073  0.82171121    -0.17900
F1319       F  0.44839372  0.74470738  0.82739424    -0.20300
F1320       F  0.44274853  0.74678764  0.77741488    -0.21500
F1321       F  0.42202568  0.78171033  0.80605034    -0.18700
F1322       F  0.56514716  0.84217524  0.77292959    -0.18800
F1323       F  0.56714705  0.84114350  0.82290734    -0.22600
F1324       F  0.53836223  0.87503975  0.79933818    -0.24200
C1325       C  0.51213003  0.87416868  0.14446009    -0.11000
C1326       C  0.49870323  0.84673179  0.13781412     0.11600
C1327       C  0.48896154  0.84098130  0.10829679    -0.02800
C1328       C  0.49231523  0.86346568  0.08642596    -0.05600
C1329       C  0.50460827  0.89167668  0.09316415    -0.16300
C1330       C  0.51563677  0.89672535  0.12266781     0.02600
C1331       C  0.49248259  0.82543479  0.16268737     0.12500
C1332       C  0.47413625  0.81148362  0.10026190     0.63200
H1333       H  0.48414328  0.85947417  0.06402981     0.12600
C1334       C  0.53144193  0.92544970  0.13144553     0.55300
H1335       H  0.51917042  0.87807023  0.16726927     0.08400
C1336       C  0.51338348  0.80381944  0.17252845    -0.05500
C1337       C  0.50422579  0.78233367  0.19376019    -0.06200
C1338       C  0.47531139  0.78251676  0.20589629    -0.15800
C1339       C  0.45494677  0.80514321  0.19698788    -0.01400
C1340       C  0.46416439  0.82648138  0.17584601    -0.08900
C1341       C  0.54526470  0.80398042  0.16112748     0.65400
H1342       H  0.51957594  0.76522827  0.20128330     0.10800
C1343       C  0.42303528  0.80646729  0.20824695     0.63800
H1344       H  0.44881183  0.84376847  0.16864199     0.08200
F1345       F  0.54527317  0.92299660  0.15899151    -0.19300
F1346       F  0.51112041  0.94866321  0.13319598    -0.15500
F1347       F  0.55321392  0.93214059  0.11059175    -0.19000
F1348       F  0.44756655  0.80863592  0.11565236    -0.22400
F1349       F  0.49255191  0.78783413  0.10771601    -0.23900
F1350       F  0.46798653  0.80955631  0.07003123    -0.17900
F1351       F  0.42198165  0.82287220  0.23434622    -0.20300
F1352       F  0.41172785  0.77823943  0.21341361    -0.21500
F1353       F  0.40459111  0.82003990  0.18745820    -0.18700
F1354       F  0.56179344  0.78066325  0.17297890    -0.18800
F1355       F  0.55885127  0.83051700  0.16914605    -0.22600
F1356       F  0.54574291  0.80140884  0.13037366    -0.24200
C1357       C  0.50620187  0.10827281  0.14545837    -0.11000
C1358       C  0.50551197  0.13810806  0.13615806     0.11600
C1359       C  0.50323204  0.14480198  0.10542129    -0.02800
C1360       C  0.50153968  0.12108673  0.08483622    -0.05600
C1361       C  0.50242413  0.09080628  0.09377294    -0.16300
C1362       C  0.50424176  0.08430852  0.12512163     0.02600
C1363       C  0.50883625  0.16173315  0.15929216     0.12500
C1364       C  0.50317571  0.17692388  0.09438416     0.63200
H1365       H  0.49990015  0.12632052  0.06131324     0.12600
C1366       C  0.50404810  0.05267881  0.13785574     0.55300
H1367       H  0.50842841  0.10401220  0.16917478     0.08400
C1368       C  0.48476876  0.17115912  0.17747291    -0.05500
C1369       C  0.49015832  0.19280729  0.19961101    -0.06200
C1370       C  0.51858548  0.20491677  0.20446590    -0.15800
C1371       C  0.54296325  0.19406178  0.18738300    -0.01400
C1372       C  0.53745518  0.17311728  0.16464001    -0.08900
C1373       C  0.45358523  0.15839499  0.17366378     0.65400
H1374       H  0.47212253  0.20027118  0.21350162     0.10800
C1375       C  0.57529283  0.20242069  0.19282756     0.63800
H1376       H  0.55594700  0.16481191  0.15139806     0.08200
F1377       F  0.50490583  0.05245181  0.16878669    -0.19300
F1378       F  0.52876616  0.03709680  0.12790761    -0.15500
F1379       F  0.47821053  0.03807924  0.12936834    -0.19000
F1380       F  0.48057508  0.19283620  0.10808413    -0.22400
F1381       F  0.49884708  0.17865174  0.06380977    -0.23900
F1382       F  0.53019243  0.19021574  0.10097502    -0.17900
F1383       F  0.59176979  0.17665854  0.19739124    -0.20300
F1384       F  0.57936141  0.22047981  0.21746379    -0.21500
F1385       F  0.58633145  0.21697501  0.16790475    -0.18700
F1386       F  0.43357491  0.17075596  0.19373730    -0.18800
F1387       F  0.45398847  0.12786236  0.17833041    -0.22600
F1388       F  0.44328174  0.16412891  0.14514569    -0.24200
C1389       C  0.35849942  0.00247333  0.12100790    -0.11000
C1390       C  0.36882628  0.99186636  0.14859392     0.11600
C1391       C  0.39822599  0.98092340  0.15113749    -0.02800
C1392       C  0.41632025  0.98040638  0.12546547    -0.05600
C1393       C  0.40617238  0.99094088  0.09747187    -0.16300
C1394       C  0.37665609  0.00257930  0.09532281     0.02600
C1395       C  0.34766207  0.99203304  0.17408932     0.12500
C1396       C  0.41051753  0.97054519  0.18102117     0.63200
H1397       H  0.43875854  0.97163363  0.12722290     0.12600
C1398       C  0.36423915  0.01578462  0.06658436     0.55300
H1399       H  0.33582185  0.01075498  0.11987882     0.08400
C1400       C  0.33864402  0.01876070  0.18852986    -0.05500
C1401       C  0.31365819  0.01796926  0.20745920    -0.06200
C1402       C  0.29813446  0.99139577  0.21307922    -0.15800
C1403       C  0.30807978  0.96440757  0.19988832    -0.01400
C1404       C  0.33276372  0.96523503  0.18051693    -0.08900
C1405       C  0.35356804  0.04885531  0.18389620     0.65400
H1406       H  0.30526849  0.03869345  0.21665771     0.10800
C1407       C  0.29184096  0.93510790  0.20518456     0.63800
H1408       H  0.33965936  0.94517514  0.16886593     0.08200
F1409       F  0.38311358  0.03788069  0.05608485    -0.19300
F1410       F  0.33643198  0.02858490  0.07078924    -0.15500
F1411       F  0.36119652  0.99358937  0.04532040    -0.19000
F1412       F  0.39484337  0.94586609  0.19093186    -0.22400
F1413       F  0.40782673  0.99326562  0.20179373    -0.23900
F1414       F  0.44034827  0.96274481  0.17914847    -0.17900
F1415       F  0.30540464  0.91149649  0.19052461    -0.20300
F1416       F  0.26276238  0.93713069  0.19512789    -0.21500
F1417       F  0.29171981  0.92867644  0.23531841    -0.18700
F1418       F  0.36058694  0.06103649  0.21140959    -0.18800
F1419       F  0.33400352  0.06782762  0.16933808    -0.22600
F1420       F  0.37959836  0.04714011  0.16745324    -0.24200
C1421       C  0.67613134  0.04272751  0.82146155    -0.11000
C1422       C  0.65973603  0.01630099  0.81909307     0.11600
C1423       C  0.66152537  0.99902233  0.79268355    -0.02800
C1424       C  0.68268893  0.00704809  0.77086434    -0.05600
C1425       C  0.70040319  0.03275448  0.77399562    -0.16300
C1426       C  0.69560771  0.05193842  0.79884049     0.02600
C1427       C  0.63844533  0.00951984  0.84338691     0.12500
C1428       C  0.64134923  0.97224097  0.78776691     0.63200
H1429       H  0.68650845  0.99241552  0.75203662     0.12600
C1430       C  0.71037872  0.08222597  0.80280116     0.55300
H1431       H  0.67319324  0.05666783  0.84106824     0.08400
C1432       C  0.64688848  0.99452250  0.86992743    -0.05500
C1433       C  0.62529239  0.99020551  0.89236530    -0.06200
C1434       C  0.59625257  0.00175871  0.88955967    -0.15800
C1435       C  0.58867788  0.01858981  0.86354555    -0.01400
C1436       C  0.60985417  0.02151066  0.84072279    -0.08900
C1437       C  0.67875017  0.98415763  0.87489832     0.65400
H1438       H  0.63110126  0.97815862  0.91254061     0.10800
C1439       C  0.55939934  0.03543173  0.86044086     0.63800
H1440       H  0.60455288  0.03396249  0.82063662     0.08200
F1441       F  0.73098731  0.08060995  0.82572062    -0.19300
F1442       F  0.68896662  0.10325462  0.81020821    -0.15500
F1443       F  0.72450437  0.09218795  0.77727145    -0.19000
F1444       F  0.61185838  0.98124941  0.78845151    -0.22400
F1445       F  0.64599805  0.95120816  0.80990845    -0.23900
F1446       F  0.64653695  0.95880448  0.76040024    -0.17900
F1447       F  0.55937970  0.05459670  0.83612062    -0.20300
F1448       F  0.55490661  0.05255658  0.88569175    -0.21500
F1449       F  0.53605776  0.01562109  0.85666659    -0.18700
F1450       F  0.68198085  0.96924939  0.90183022    -0.18800
F1451       F  0.69758114  0.00861345  0.87516768    -0.22600
F1452       F  0.68736489  0.96502613  0.85227279    -0.24200
C1453       C  0.32350015  0.99572810  0.81073623    -0.11000
C1454       C  0.34175148  0.97207061  0.81986435     0.11600
C1455       C  0.33852028  0.94356352  0.80658108    -0.02800
C1456       C  0.31579614  0.93942346  0.78533752    -0.05600
C1457       C  0.29752881  0.96314204  0.77602992    -0.16300
C1458       C  0.30156925  0.99190231  0.78869275     0.02600
C1459       C  0.36262874  0.97743972  0.84490597     0.12500
C1460       C  0.35887464  0.91771375  0.81497007     0.63200
H1461       H  0.31131008  0.91727895  0.77682317     0.12600
C1462       C  0.28218008  0.01826555  0.77984198     0.55300
H1463       H  0.32615516  0.01714226  0.82167398     0.08400
C1464       C  0.38990562  0.99260009  0.84090619    -0.05500
C1465       C  0.40873014  0.99622340  0.86571680    -0.06200
C1466       C  0.40105002  0.98539904  0.89432997    -0.15800
C1467       C  0.37303420  0.97093660  0.89831995    -0.01400
C1468       C  0.35422478  0.96762114  0.87339543    -0.08900
C1469       C  0.39885426  0.00517476  0.81064586     0.65400
H1470       H  0.42974278  0.00778711  0.86285233     0.10800
C1471       C  0.36311662  0.95799578  0.92814385     0.63800
H1472       H  0.33273509  0.95683393  0.87574902     0.08200
F1473       F  0.28564762  0.02397939  0.74980851    -0.19300
F1474       F  0.28982581  0.04400164  0.79519236    -0.15500
F1475       F  0.25256438  0.01209921  0.78573887    -0.19000
F1476       F  0.35495867  0.91016295  0.84465117    -0.22400
F1477       F  0.38823874  0.92586742  0.81043863    -0.23900
F1478       F  0.35325537  0.89256075  0.79789070    -0.17900
F1479       F  0.33628828  0.94286394  0.92588243    -0.20300
F1480       F  0.35924418  0.98071708  0.94871336    -0.21500
F1481       F  0.38424386  0.93793955  0.93845044    -0.18700
F1482       F  0.42763819  0.01625742  0.81088070    -0.18800
F1483       F  0.37984392  0.02825221  0.80291510    -0.22600
F1484       F  0.39735677  0.98317074  0.78903141    -0.24200
C1485       C  0.48796306  0.10157250  0.33564950    -0.11000
C1486       C  0.50505283  0.12733286  0.33962855     0.11600
C1487       C  0.51630766  0.13461987  0.36822935    -0.02800
C1488       C  0.51229407  0.11404998  0.39159994    -0.05600
C1489       C  0.49634145  0.08734712  0.38742163    -0.16300
C1490       C  0.48276260  0.08160300  0.35923964     0.02600
C1491       C  0.50755187  0.14817666  0.31427386     0.12500
C1492       C  0.53174368  0.16430301  0.37417208     0.63200
H1493       H  0.52196717  0.11856936  0.41328872     0.12600
C1494       C  0.46245559  0.05499835  0.35371744     0.55300
H1495       H  0.47854175  0.09733164  0.31376774     0.08400
C1496       C  0.53186448  0.14773798  0.29414086    -0.05500
C1497       C  0.53453754  0.17134840  0.27354957    -0.06200
C1498       C  0.51333696  0.19438616  0.27257718    -0.15800
C1499       C  0.48714226  0.19257953  0.29023674    -0.01400
C1500       C  0.48475932  0.16921399  0.31089408    -0.08900
C1501       C  0.55482438  0.12275429  0.29471411     0.65400
H1502       H  0.55404042  0.17296080  0.25934980     0.10800
C1503       C  0.46202440  0.21536268  0.28791303     0.63800
H1504       H  0.46572438  0.16795950  0.32575380     0.08200
F1505       F  0.47945499  0.02952339  0.34962966    -0.19300
F1506       F  0.44507918  0.05908827  0.32846599    -0.15500
F1507       F  0.44328270  0.05104801  0.37761583    -0.19000
F1508       F  0.51242233  0.18759687  0.36799696    -0.22400
F1509       F  0.55672929  0.16715534  0.35637010    -0.23900
F1510       F  0.54065949  0.16690904  0.40366069    -0.17900
F1511       F  0.43800722  0.20776745  0.30581994    -0.20300
F1512       F  0.45184053  0.21688867  0.25891197    -0.21500
F1513       F  0.47181317  0.24327590  0.29658996    -0.18700
F1514       F  0.57539499  0.12568253  0.27182499    -0.18800
F1515       F  0.54069600  0.09550068  0.29141777    -0.22600
F1516       F  0.57011041  0.12280416  0.32149449    -0.24200
C1517       C  0.44833641  0.81621099  0.31948195    -0.11000
C1518       C  0.47534350  0.83179002  0.31871286     0.11600
C1519       C  0.49564249  0.82673825  0.29501102    -0.02800
C1520       C  0.48866318  0.80485082  0.27352805    -0.05600
C1521       C  0.46165340  0.78897407  0.27447323    -0.16300
C1522       C  0.44039611  0.79601040  0.29696542     0.02600
C1523       C  0.48125897  0.85346911  0.34305744     0.12500
C1524       C  0.52467493  0.84401327  0.29272618     0.63200
H1525       H  0.50498016  0.79900734  0.25672350     0.12600
C1526       C  0.40892347  0.78348867  0.29820195     0.55300
H1527       H  0.43286374  0.82047730  0.33761883     0.08400
C1528       C  0.46717936  0.88173391  0.34374803    -0.05500
C1529       C  0.47268663  0.90062585  0.36811066    -0.06200
C1530       C  0.49115746  0.89204421  0.39208987    -0.15800
C1531       C  0.50498507  0.86350781  0.39152650    -0.01400
C1532       C  0.49974170  0.84467409  0.36681959    -0.08900
C1533       C  0.44573048  0.89163596  0.31932262     0.65400
H1534       H  0.46174643  0.92220419  0.36899119     0.10800
C1535       C  0.52520077  0.85293971  0.41657529     0.63800
H1536       H  0.50963847  0.82259597  0.36603118     0.08200
F1537       F  0.38888675  0.80671552  0.30210073    -0.19300
F1538       F  0.40649912  0.76412882  0.32217489    -0.15500
F1539       F  0.40075732  0.76863479  0.27245544    -0.19000
F1540       F  0.54255817  0.83765434  0.31705334    -0.22400
F1541       F  0.51884283  0.87435375  0.29207067    -0.23900
F1542       F  0.54034460  0.83678138  0.26706399    -0.17900
F1543       F  0.50853777  0.84864750  0.44219344    -0.20300
F1544       F  0.54718721  0.87395355  0.42191813    -0.21500
F1545       F  0.53905908  0.82614338  0.40971241    -0.18700
F1546       F  0.43754862  0.92132550  0.32244208    -0.18800
F1547       F  0.42010956  0.87453386  0.32053112    -0.22600
F1548       F  0.45878237  0.88831781  0.29154261    -0.24200
C1549       C  0.50216229  0.14063429  0.61333829    -0.11000
C1550       C  0.51786033  0.13088475  0.63860172     0.11600
C1551       C  0.52973543  0.10169499  0.63953988    -0.02800
C1552       C  0.52585406  0.08321481  0.61447557    -0.05600
C1553       C  0.50939139  0.09253120  0.58922023    -0.16300
C1554       C  0.49742683  0.12193657  0.58855408     0.02600
C1555       C  0.51950385  0.15153639  0.66432470     0.12500
C1556       C  0.54505718  0.08966703  0.66737757     0.63200
H1557       H  0.53502402  0.06081175  0.61484604     0.12600
C1558       C  0.47865889  0.13333841  0.56269466     0.55300
H1559       H  0.49304067  0.16306184  0.61358642     0.08400
C1560       C  0.54095952  0.17459423  0.66573182    -0.05500
C1561       C  0.53853564  0.19586246  0.68861897    -0.06200
C1562       C  0.51426702  0.19613288  0.70852289    -0.15800
C1563       C  0.49219246  0.17352192  0.70632936    -0.01400
C1564       C  0.49618978  0.15068053  0.68516950    -0.08900
C1565       C  0.56484812  0.17815404  0.64188061     0.65400
H1566       H  0.55460323  0.21388956  0.68989934     0.10800
C1567       C  0.46294441  0.17339935  0.72338312     0.63800
H1568       H  0.47941947  0.13333695  0.68311745     0.08200
F1569       F  0.49596180  0.13540667  0.53721344    -0.19300
F1570       F  0.46698339  0.16143586  0.56833763    -0.15500
F1571       F  0.45503912  0.11408983  0.55773572    -0.19000
F1572       F  0.52463070  0.08791650  0.69044663    -0.22400
F1573       F  0.56809559  0.10828672  0.67589570    -0.23900
F1574       F  0.55683488  0.06142012  0.66277944    -0.17900
F1575       F  0.43956510  0.17034822  0.70342444    -0.20300
F1576       F  0.45796707  0.19927158  0.73933899    -0.21500
F1577       F  0.46261352  0.14936629  0.74281353    -0.18700
F1578       F  0.58472134  0.20077764  0.64883229    -0.18800
F1579       F  0.55157099  0.18512567  0.61488993    -0.22600
F1580       F  0.58091372  0.15199868  0.63870418    -0.24200
C1581       C  0.47146645  0.82002580  0.67708121    -0.11000
C1582       C  0.49836932  0.83086609  0.66549284     0.11600
C1583       C  0.52586313  0.82106269  0.67751177    -0.02800
C1584       C  0.52549196  0.79866260  0.69946987    -0.05600
C1585       C  0.49860870  0.78696635  0.71032965    -0.16300
C1586       C  0.47110690  0.79802830  0.69947037     0.02600
C1587       C  0.49712217  0.85280198  0.64086726     0.12500
C1588       C  0.55533080  0.83426398  0.66718943     0.63200
H1589       H  0.54623957  0.78948514  0.70783279     0.12600
C1590       C  0.44163099  0.78637072  0.71123600     0.55300
H1591       H  0.45077010  0.82861991  0.66800708     0.08400
C1592       C  0.49512107  0.84403766  0.61065869    -0.05500
C1593       C  0.49568886  0.86627302  0.58846574    -0.06200
C1594       C  0.49766486  0.89694335  0.59552851    -0.15800
C1595       C  0.49891205  0.90547009  0.62644604    -0.01400
C1596       C  0.49853151  0.88296413  0.64832645    -0.08900
C1597       C  0.49196689  0.81133923  0.60203220     0.65400
H1598       H  0.49428152  0.85961866  0.56528301     0.10800
C1599       C  0.50086392  0.93773356  0.63722134     0.63800
H1600       H  0.49962030  0.88859462  0.67182929     0.08200
F1601       F  0.41755694  0.79902672  0.69656351    -0.19300
F1602       F  0.43926375  0.79337094  0.74114632    -0.15500
F1603       F  0.44002265  0.75570531  0.70765497    -0.19000
F1604       F  0.55673081  0.86398163  0.67550617    -0.22400
F1605       F  0.55791152  0.83229580  0.63648091    -0.23900
F1606       F  0.57945645  0.81956147  0.67972342    -0.17900
F1607       F  0.47573951  0.95337781  0.62842127    -0.20300
F1608       F  0.52623032  0.95107267  0.62582425    -0.21500
F1609       F  0.50252848  0.93977613  0.66805310    -0.18700
F1610       F  0.49228978  0.80743064  0.57135686    -0.18800
F1611       F  0.46525003  0.80036962  0.61285868    -0.22600
F1612       F  0.51513042  0.79477713  0.61395386    -0.24200
C1613       C  0.34283798  0.98323158  0.37822824    -0.11000
C1614       C  0.35079119  0.98811886  0.34838459     0.11600
C1615       C  0.38112202  0.99315854  0.34116691    -0.02800
C1616       C  0.40253203  0.99254755  0.36419852    -0.05600
C1617       C  0.39487804  0.98744038  0.39433528    -0.16300
C1618       C  0.36417034  0.98199206  0.40137921     0.02600
C1619       C  0.32664723  0.98814530  0.32532474     0.12500
C1620       C  0.39093877  0.99943629  0.30928335     0.63200
H1621       H  0.42564678  0.99650605  0.35861704     0.12600
C1622       C  0.35333521  0.97403912  0.43267921     0.55300
H1623       H  0.31939527  0.98024847  0.38319187     0.08400
C1624       C  0.31239787  0.96153537  0.31561796    -0.05500
C1625       C  0.28976843  0.96351476  0.29376091    -0.06200
C1626       C  0.28184061  0.99086460  0.28066188    -0.15800
C1627       C  0.29539348  0.01754831  0.29115603    -0.01400
C1628       C  0.31726121  0.01564614  0.31359776    -0.08900
C1629       C  0.32153314  0.93114376  0.32773017     0.65400
H1630       H  0.27826103  0.94363234  0.28637060     0.10800
C1631       C  0.28747877  0.04866796  0.28016151     0.63800
H1632       H  0.32735048  0.03600215  0.32197155     0.08200
F1633       F  0.36896051  0.94955393  0.44331523    -0.19300
F1634       F  0.32335903  0.96660548  0.43307639    -0.15500
F1635       F  0.35705425  0.99810717  0.45169595    -0.19000
F1636       F  0.37945276  0.02653693  0.29990274    -0.22400
F1637       F  0.38090900  0.97704954  0.29055398    -0.23900
F1638       F  0.42168456  0.00083901  0.30674517    -0.17900
F1639       F  0.27733738  0.06552858  0.30396884    -0.20300
F1640       F  0.26562519  0.04892010  0.25845461    -0.21500
F1641       F  0.31274112  0.06215069  0.26863171    -0.18700
F1642       F  0.30654980  0.90812151  0.31356805    -0.18800
F1643       F  0.31521276  0.92936478  0.35788758    -0.22600
F1644       F  0.35177995  0.92685259  0.32343957    -0.24200
C1645       C  0.66253938  0.03692398  0.67600218    -0.11000
C1646       C  0.66294055  0.00936685  0.66112244     0.11600
C1647       C  0.68586566  0.98851942  0.66775613    -0.02800
C1648       C  0.70720614  0.99591389  0.68966782    -0.05600
C1649       C  0.70706390  0.02366534  0.70428808    -0.16300
C1650       C  0.68444308  0.04475546  0.69709604     0.02600
C1651       C  0.64019498  0.00413259  0.63730740     0.12500
C1652       C  0.68796466  0.95867077  0.65173810     0.63200
H1653       H  0.72453939  0.98012629  0.69549956     0.12600
C1654       C  0.68303098  0.07601875  0.71010537     0.55300
H1655       H  0.64533560  0.05296658  0.67023178     0.08400
C1656       C  0.60983089  0.99862817  0.64383293    -0.05500
C1657       C  0.58940747  0.99638014  0.62002350    -0.06200
C1658       C  0.59828470  0.99804711  0.58976247    -0.15800
C1659       C  0.62932602  0.00192463  0.58343723    -0.01400
C1660       C  0.64925250  0.00622086  0.60743787    -0.08900
C1661       C  0.59905034  0.99471359  0.67580762     0.65400
H1662       H  0.56608003  0.99327923  0.62519422     0.10800
C1663       C  0.64209477  0.00131285  0.55191625     0.63800
H1664       H  0.67245929  0.01126267  0.60309690     0.08200
F1665       F  0.66244566  0.07659166  0.73309388    -0.19300
F1666       F  0.67421355  0.09625284  0.68839025    -0.15500
F1667       F  0.71032776  0.08548066  0.72065199    -0.19000
F1668       F  0.69409140  0.96316664  0.62182644    -0.22400
F1669       F  0.66134283  0.94335101  0.65446769    -0.23900
F1670       F  0.71043873  0.94089903  0.66337109    -0.17900
F1671       F  0.67287701  0.00369929  0.55177772    -0.20300
F1672       F  0.63087930  0.02494825  0.53543854    -0.21500
F1673       F  0.63502342  0.97447000  0.53828754    -0.18700
F1674       F  0.56919290  0.98691073  0.67704438    -0.18800
F1675       F  0.60259191  0.02100888  0.69155492    -0.22600
F1676       F  0.61526595  0.97232878  0.68962205    -0.24200
C1677       C  0.34695298  0.98817142  0.61045835    -0.11000
C1678       C  0.35640225  0.98706427  0.64020473     0.11600
C1679       C  0.38711883  0.99003656  0.64673323    -0.02800
C1680       C  0.40749184  0.99323783  0.62290090    -0.05600
C1681       C  0.39833410  0.99373337  0.59267725    -0.16300
C1682       C  0.36697608  0.99241846  0.58653395     0.02600
C1683       C  0.33351597  0.98134320  0.66376855     0.12500
C1684       C  0.39839150  0.98947673  0.67876607     0.63200
H1685       H  0.43101604  0.99478489  0.62796038     0.12600
C1686       C  0.35387916  0.99582408  0.55530942     0.55300
H1687       H  0.32337780  0.98527657  0.60613082     0.08400
C1688       C  0.31162202  0.00276879  0.67186773    -0.05500
C1689       C  0.28940591  0.99463417  0.69263638    -0.06200
C1690       C  0.28931460  0.96654257  0.70657747    -0.15800
C1691       C  0.31114309  0.94505945  0.69824710    -0.01400
C1692       C  0.33275406  0.95293956  0.67693574    -0.08900
C1693       C  0.31200514  0.03422801  0.65912024     0.65400
H1694       H  0.27185224  0.01023607  0.69829192     0.10800
C1695       C  0.31206342  0.91311886  0.70974295     0.63800
H1696       H  0.34890663  0.93634302  0.66985969     0.08200
F1697       F  0.36360063  0.02233576  0.54271302    -0.19300
F1698       F  0.32300536  0.99670098  0.55565679    -0.15500
F1699       F  0.36218535  0.97194276  0.53758429    -0.19000
F1700       F  0.39499492  0.96118071  0.69068545    -0.22400
F1701       F  0.38252098  0.00968031  0.69592394    -0.23900
F1702       F  0.42828231  0.99696865  0.68052924    -0.17900
F1703       F  0.31387203  0.89358434  0.68586147    -0.20300
F1704       F  0.28717183  0.90528638  0.72611739    -0.21500
F1705       F  0.33718445  0.90938406  0.72725568    -0.18700
F1706       F  0.29183930  0.05269179  0.67356321    -0.18800
F1707       F  0.30465717  0.03363316  0.62916129    -0.22600
F1708       F  0.34009260  0.04653638  0.66242217    -0.24200
C1709       C  0.66304129  0.03323701  0.17915109    -0.11000
C1710       C  0.65834279  0.00379649  0.16964208     0.11600
C1711       C  0.67532501  0.98019567  0.18207780    -0.02800
C1712       C  0.69681850  0.98715074  0.20386742    -0.05600
C1713       C  0.70222429  0.01676790  0.21264109    -0.16300
C1714       C  0.68505018  0.04024853  0.20028370     0.02600
C1715       C  0.63794296  0.99936413  0.14408987     0.12500
C1716       C  0.67236002  0.94827870  0.17084449     0.63200
H1717       H  0.71121546  0.96975145  0.21255492     0.12600
C1718       C  0.69020898  0.07257821  0.20903547     0.55300
H1719       H  0.64994350  0.05085660  0.16894167     0.08400
C1720       C  0.60700580  0.99559120  0.14797907    -0.05500
C1721       C  0.58911472  0.99296039  0.12246699    -0.06200
C1722       C  0.60046393  0.99673049  0.09317816    -0.15800
C1723       C  0.63145701  0.00288681  0.08966046    -0.01400
C1724       C  0.64970710  0.00300887  0.11529530    -0.08900
C1725       C  0.59265603  0.99597991  0.17881693     0.65400
H1726       H  0.56559233  0.98884684  0.12564493     0.10800
C1727       C  0.64534036  0.01095408  0.05971932     0.63800
H1728       H  0.67341376  0.00718889  0.11328766     0.08200
F1729       F  0.68360637  0.07608548  0.23893141    -0.19300
F1730       F  0.67233591  0.09198218  0.19286885    -0.15500
F1731       F  0.71957009  0.08054222  0.20402765    -0.19000
F1732       F  0.68020289  0.94704163  0.14101097    -0.22400
F1733       F  0.64336634  0.93840871  0.17393222    -0.23900
F1734       F  0.69063639  0.92879923  0.18646102    -0.17900
F1735       F  0.67512465  0.01863716  0.06247033    -0.20300
F1736       F  0.63058953  0.03530845  0.04761210    -0.21500
F1737       F  0.64368908  0.98692697  0.04038884    -0.18700
F1738       F  0.56195684  0.99292927  0.17732615    -0.18800
F1739       F  0.59874518  0.02284433  0.19275733    -0.22600
F1740       F  0.60361669  0.97296474  0.19618401    -0.24200
C1741       C  0.61475746  0.00580867  0.33864837    -0.11000
C1742       C  0.64378639  0.99748853  0.34659122     0.11600
C1743       C  0.64952661  0.98748263  0.37599336    -0.02800
C1744       C  0.62560565  0.98562565  0.39646115    -0.05600
C1745       C  0.59616242  0.99396514  0.38879820    -0.16300
C1746       C  0.59073277  0.00438064  0.35902081     0.02600
C1747       C  0.66804533  0.00199680  0.32418530     0.12500
C1748       C  0.68101257  0.97956082  0.38584736     0.63200
H1749       H  0.62996692  0.97783920  0.41893669     0.12600
C1750       C  0.56023972  0.01496952  0.34845370     0.55300
H1751       H  0.61123874  0.01391866  0.31611755     0.08400
C1752       C  0.67542819  0.98027371  0.30236567    -0.05500
C1753       C  0.69854813  0.98656023  0.28194856    -0.06200
C1754       C  0.71273896  0.01450078  0.28115717    -0.15800
C1755       C  0.70387688  0.03692348  0.30173944    -0.01400
C1756       C  0.68240490  0.02984081  0.32354842    -0.08900
C1757       C  0.65803666  0.95128453  0.29965707     0.65400
H1758       H  0.70525686  0.96993593  0.26579574     0.10800
C1759       C  0.71515002  0.06889694  0.30113193     0.63800
H1760       H  0.67584572  0.04672779  0.33963817     0.08200
F1761       F  0.54041930  0.99130794  0.34831918    -0.19300
F1762       F  0.56113445  0.02645638  0.31971366    -0.15500
F1763       F  0.54989343  0.03736636  0.36703654    -0.19000
F1764       F  0.69911529  0.00446486  0.38366130    -0.22400
F1765       F  0.69254862  0.95724421  0.36793424    -0.23900
F1766       F  0.68180706  0.96956702  0.41510713    -0.17900
F1767       F  0.69106793  0.08824624  0.30023608    -0.20300
F1768       F  0.73289708  0.07513712  0.27670734    -0.21500
F1769       F  0.73125717  0.07447046  0.32685540    -0.18700
F1770       F  0.66905401  0.93331109  0.27702087    -0.18800
F1771       F  0.62854957  0.95764003  0.29327471    -0.22600
F1772       F  0.65938009  0.93529169  0.32601188    -0.24200
C1773       C  0.36766121  0.85355857  0.47535098    -0.11000
C1774       C  0.34502215  0.85851934  0.49647200     0.11600
C1775       C  0.34917901  0.88039683  0.51895379    -0.02800
C1776       C  0.37526169  0.89785570  0.51825605    -0.05600
C1777       C  0.39738449  0.89371406  0.49640887    -0.16300
C1778       C  0.39380793  0.87096510  0.47471434     0.02600
C1779       C  0.31867104  0.83833622  0.49575039     0.12500
C1780       C  0.32621216  0.88551228  0.54341133     0.63200
H1781       H  0.37862014  0.91515038  0.53481610     0.12600
C1782       C  0.41693936  0.86564145  0.45050357     0.55300
H1783       H  0.36451149  0.83586209  0.45915989     0.08400
C1784       C  0.29587838  0.84071108  0.47385385    -0.05500
C1785       C  0.27455799  0.81759434  0.47168319    -0.06200
C1786       C  0.27554427  0.79256698  0.49059247    -0.15800
C1787       C  0.29661488  0.79186966  0.51419610    -0.01400
C1788       C  0.31849219  0.81415534  0.51559157    -0.08900
C1789       C  0.29463434  0.86696454  0.45232142     0.65400
H1790       H  0.25829815  0.81792434  0.45387094     0.10800
C1791       C  0.29757527  0.76763783  0.53790654     0.63800
H1792       H  0.33612137  0.81228973  0.53207277     0.08200
F1793       F  0.42162513  0.89170947  0.43453534    -0.19300
F1794       F  0.40802304  0.84372760  0.43059737    -0.15500
F1795       F  0.44346403  0.85648628  0.46331961    -0.19000
F1796       F  0.32277347  0.85987961  0.56029105    -0.22400
F1797       F  0.29910195  0.89312007  0.53084549    -0.23900
F1798       F  0.33461388  0.90828426  0.56258610    -0.17900
F1799       F  0.30010992  0.78069989  0.56580331    -0.20300
F1800       F  0.32214317  0.74956627  0.53309884    -0.21500
F1801       F  0.27215108  0.75016970  0.53817228    -0.18700
F1802       F  0.27046393  0.86500770  0.43316949    -0.18800
F1803       F  0.32018654  0.86791100  0.43509082    -0.22600
F1804       F  0.29216359  0.89333769  0.46818605    -0.24200
C1805       C  0.68863479  0.83274014  0.46064022    -0.11000
C1806       C  0.67725265  0.83923783  0.48906980     0.11600
C1807       C  0.68929208  0.82514081  0.51468714    -0.02800
C1808       C  0.71125426  0.80328619  0.51063661    -0.05600
C1809       C  0.72135890  0.79559259  0.48208728    -0.16300
C1810       C  0.71093586  0.81115008  0.45673432     0.02600
C1811       C  0.65162091  0.85972762  0.49102402     0.12500
C1812       C  0.67798097  0.83180807  0.54597023     0.63200
H1813       H  0.71898162  0.79031337  0.52957149     0.12600
C1814       C  0.72291418  0.80438222  0.42580997     0.55300
H1815       H  0.67900095  0.84383943  0.44141360     0.08400
C1816       C  0.65472279  0.89065215  0.48611237    -0.05500
C1817       C  0.62900995  0.90832479  0.48635844    -0.06200
C1818       C  0.60053917  0.89649090  0.49308111    -0.15800
C1819       C  0.59810054  0.86561843  0.50038975    -0.01400
C1820       C  0.62361311  0.84758403  0.49764608    -0.08900
C1821       C  0.68496006  0.90500807  0.48048126     0.65400
H1822       H  0.63130887  0.93178723  0.48096300     0.10800
C1823       C  0.56958366  0.85161523  0.51227679     0.63800
H1824       H  0.62201664  0.82366109  0.50099292     0.08200
F1825       F  0.75335627  0.80894553  0.42558609    -0.19300
F1826       F  0.71039463  0.82273086  0.40426925    -0.15500
F1827       F  0.71692513  0.77503386  0.41824159    -0.19000
F1828       F  0.64981407  0.81987076  0.54970034    -0.22400
F1829       F  0.67683029  0.86233979  0.55059897    -0.23900
F1830       F  0.69640611  0.81957678  0.56759192    -0.17900
F1831       F  0.54820503  0.85073788  0.49010169    -0.20300
F1832       F  0.55913775  0.86800244  0.53631477    -0.21500
F1833       F  0.57416022  0.82260413  0.52210620    -0.18700
F1834       F  0.68355537  0.93586865  0.48246051    -0.18800
F1835       F  0.69496026  0.89766090  0.45222820    -0.22600
F1836       F  0.70544046  0.89517553  0.50141176    -0.24200
C1837       C  0.64697559  0.11085285  0.47735901    -0.11000
C1838       C  0.64244322  0.13560880  0.49588922     0.11600
C1839       C  0.61459796  0.13962380  0.51024550    -0.02800
C1840       C  0.59264071  0.11741920  0.50690244    -0.05600
C1841       C  0.59749027  0.09186470  0.48928476    -0.16300
C1842       C  0.62498348  0.08876763  0.47362193     0.02600
C1843       C  0.66747384  0.15694824  0.49962847     0.12500
C1844       C  0.60786116  0.16752873  0.52838373     0.63200
H1845       H  0.57148678  0.11972766  0.51836019     0.12600
C1846       C  0.63113114  0.06293131  0.45238869     0.55300
H1847       H  0.66829411  0.10879873  0.46615744     0.08400
C1848       C  0.68966094  0.15292556  0.52181101    -0.05500
C1849       C  0.71171438  0.17511880  0.52526922    -0.06200
C1850       C  0.71293885  0.19997863  0.50616679    -0.15800
C1851       C  0.69299013  0.20170524  0.48162164    -0.01400
C1852       C  0.66982112  0.18075631  0.47947416    -0.08900
C1853       C  0.68984991  0.12534063  0.54163059     0.65400
H1854       H  0.72729261  0.17381061  0.54364464     0.10800
C1855       C  0.69526543  0.22526221  0.45727360     0.63800
H1856       H  0.65357266  0.18276050  0.46163957     0.08200
F1857       F  0.63432964  0.03658103  0.46821278    -0.19300
F1858       F  0.65711424  0.06725962  0.43622100    -0.15500
F1859       F  0.60791937  0.06020727  0.43222772    -0.19000
F1860       F  0.60815774  0.19219400  0.50976435    -0.22400
F1861       F  0.62896950  0.17140236  0.55051900    -0.23900
F1862       F  0.58014021  0.16602522  0.54196263    -0.17900
F1863       F  0.69265747  0.21176345  0.42960073    -0.20300
F1864       F  0.72226646  0.24019485  0.45763562    -0.21500
F1865       F  0.67241225  0.24576014  0.46057682    -0.18700
F1866       F  0.71315987  0.12587749  0.56188139    -0.18800
F1867       F  0.69297803  0.10006794  0.52414779    -0.22600
F1868       F  0.66348073  0.12332903  0.55748667    -0.24200
C1869       C  0.37539731  0.13832508  0.47336211    -0.11000
C1870       C  0.34662435  0.12771364  0.47904814     0.11600
C1871       C  0.34167263  0.09703109  0.48374090    -0.02800
C1872       C  0.36651278  0.07815936  0.48603339    -0.05600
C1873       C  0.39597423  0.08874451  0.48205721    -0.16300
C1874       C  0.40032258  0.11927101  0.47389222     0.02600
C1875       C  0.32211204  0.14959477  0.48011325     0.12500
C1876       C  0.31025784  0.08433838  0.48545752     0.63200
H1877       H  0.36277332  0.05476769  0.49081909     0.12600
C1878       C  0.43048756  0.13195927  0.46483820     0.55300
H1879       H  0.37809117  0.16193665  0.46870439     0.08400
C1880       C  0.31488588  0.16479381  0.50683667    -0.05500
C1881       C  0.29288862  0.18705544  0.50580942    -0.06200
C1882       C  0.27906519  0.19507889  0.47887961    -0.15800
C1883       C  0.28605515  0.17958034  0.45227516    -0.01400
C1884       C  0.30739936  0.15663418  0.45343422    -0.08900
C1885       C  0.33178725  0.15898903  0.53573478     0.65400
H1886       H  0.28789938  0.20003768  0.52561681     0.10800
C1887       C  0.27167664  0.18787580  0.42277126     0.63800
H1888       H  0.31364475  0.14470798  0.43333106     0.08200
F1889       F  0.44945952  0.13256732  0.48916707    -0.19300
F1890       F  0.42817058  0.16090268  0.45410120    -0.15500
F1891       F  0.44271937  0.11470869  0.44229565    -0.19000
F1892       F  0.29574705  0.08946296  0.45868092    -0.22400
F1893       F  0.29435112  0.09785307  0.50818206    -0.23900
F1894       F  0.31035211  0.05383105  0.49067182    -0.17900
F1895       F  0.28242101  0.17063550  0.39945001    -0.20300
F1896       F  0.27728507  0.21753571  0.41610262    -0.21500
F1897       F  0.24127228  0.18344277  0.42474776    -0.18700
F1898       F  0.32021852  0.17531399  0.55930874    -0.18800
F1899       F  0.36135357  0.16697822  0.53216057    -0.22600
F1900       F  0.33034163  0.12908272  0.54331619    -0.24200
C1901       C  0.87373800  0.01101252  0.64165120    -0.11000
C1902       C  0.84602125  0.00096766  0.63127654     0.11600
C1903       C  0.84335034  0.98898735  0.60232828    -0.02800
C1904       C  0.86921156  0.98614179  0.58495503    -0.05600
C1905       C  0.89713184  0.99692076  0.59475599    -0.16300
C1906       C  0.89948102  0.00976364  0.62374660     0.02600
C1907       C  0.81989710  0.00529268  0.65085278     0.12500
C1908       C  0.81308614  0.98115643  0.58918894     0.63200
H1909       H  0.86743413  0.97652779  0.56284109     0.12600
C1910       C  0.92819493  0.02365317  0.63540377     0.55300
H1911       H  0.87472848  0.02068028  0.66380617     0.08400
C1912       C  0.81247289  0.98450481  0.67344600    -0.05500
C1913       C  0.78959605  0.99193272  0.69355490    -0.06200
C1914       C  0.77558672  0.02002345  0.69275124    -0.15800
C1915       C  0.78301974  0.04068264  0.67002298    -0.01400
C1916       C  0.80460286  0.03253330  0.64880390    -0.08900
C1917       C  0.83001473  0.95565965  0.67749305     0.65400
H1918       H  0.78421634  0.97689741  0.71176057     0.10800
C1919       C  0.77000255  0.07194913  0.66958920     0.63800
H1920       H  0.81125992  0.04820134  0.63158779     0.08200
F1921       F  0.95001713  0.00201917  0.63842723    -0.19300
F1922       F  0.92432715  0.03677878  0.66313378    -0.15500
F1923       F  0.93780957  0.04562858  0.61588157    -0.19000
F1924       F  0.79631714  0.00693282  0.58618320    -0.22400
F1925       F  0.79803696  0.96149298  0.60759680    -0.23900
F1926       F  0.81564272  0.96803167  0.56130854    -0.17900
F1927       F  0.78009397  0.08839981  0.64540641    -0.20300
F1928       F  0.77798525  0.08690147  0.69540751    -0.21500
F1929       F  0.73934634  0.07037356  0.66776100    -0.18700
F1930       F  0.81902873  0.93861607  0.70084825    -0.18800
F1931       F  0.85952596  0.96217584  0.68359278    -0.22600
F1932       F  0.82867270  0.93861797  0.65181816    -0.24200
C1933       C  0.19233497  0.95554978  0.65132681    -0.11000
C1934       C  0.17590211  0.98198841  0.65506426     0.11600
C1935       C  0.18190562  0.00078969  0.67976260    -0.02800
C1936       C  0.20458971  0.99245426  0.69983798    -0.05600
C1937       C  0.22010648  0.96534199  0.69685801    -0.16300
C1938       C  0.21403782  0.94654792  0.67220988     0.02600
C1939       C  0.15013715  0.98713638  0.63481582     0.12500
C1940       C  0.16314277  0.02837774  0.68603814     0.63200
H1941       H  0.20899057  0.00604491  0.71936857     0.12600
C1942       C  0.22939343  0.91659622  0.66869524     0.55300
H1943       H  0.18686304  0.94124573  0.63260729     0.08400
C1944       C  0.15313688  0.00117521  0.60670340    -0.05500
C1945       C  0.12766863  0.00419892  0.58857596    -0.06200
C1946       C  0.09979187  0.99197531  0.59666986    -0.15800
C1947       C  0.09737637  0.97649354  0.62438928    -0.01400
C1948       C  0.12255712  0.97501119  0.64317917    -0.08900
C1949       C  0.18328548  0.01182869  0.59538478     0.65400
H1950       H  0.12964247  0.01562134  0.56734132     0.10800
C1951       C  0.06913151  0.96024480  0.63375982     0.63800
H1952       H  0.12122460  0.96356471  0.66447220     0.08200
F1953       F  0.25974060  0.92086108  0.66656249    -0.19300
F1954       F  0.22015745  0.90176320  0.64319494    -0.15500
F1955       F  0.22322393  0.89864980  0.69309473    -0.19000
F1956       F  0.13402074  0.01998997  0.69169896    -0.22400
F1957       F  0.16357727  0.04742948  0.66176073    -0.23900
F1958       F  0.17351496  0.04403770  0.71059722    -0.17900
F1959       F  0.07326966  0.94362670  0.65955453    -0.20300
F1960       F  0.06036841  0.94075010  0.61144218    -0.21500
F1961       F  0.04670350  0.98071664  0.63926181    -0.18700
F1962       F  0.18131328  0.02421299  0.56708949    -0.18800
F1963       F  0.20284829  0.98797427  0.59396432    -0.22600
F1964       F  0.19485138  0.03320365  0.61434778    -0.24200
C1965       C  0.14864974  0.97491380  0.38040179    -0.11000
C1966       C  0.14498087  0.99086921  0.35378117     0.11600
C1967       C  0.11782236  0.00621598  0.34852084    -0.02800
C1968       C  0.09622869  0.00726574  0.37145511    -0.05600
C1969       C  0.10017525  0.99204992  0.39871834    -0.16300
C1970       C  0.12644532  0.97450168  0.40269542     0.02600
C1971       C  0.16931273  0.98960052  0.33107432     0.12500
C1972       C  0.11135626  0.02054728  0.31843977     0.63200
H1973       H  0.07584235  0.01981147  0.36808406     0.12600
C1974       C  0.13064828  0.95406553  0.42944201     0.55300
H1975       H  0.16910198  0.96235893  0.38337725     0.08400
C1976       C  0.19405614  0.00929520  0.33162333    -0.05500
C1977       C  0.21442666  0.00879677  0.30763031    -0.06200
C1978       C  0.21166973  0.98816466  0.28425488    -0.15800
C1979       C  0.18880680  0.96617639  0.28559438    -0.01400
C1980       C  0.16769082  0.96767883  0.30882761    -0.08900
C1981       C  0.19918080  0.03026354  0.35770545     0.65400
H1982       H  0.23227389  0.02497432  0.30665498     0.10800
C1983       C  0.18727425  0.94045868  0.26340723     0.63800
H1984       H  0.14940803  0.95189019  0.30966943     0.08200
F1985       F  0.13608970  0.97090782  0.45471392    -0.19300
F1986       F  0.15447284  0.93472886  0.42555412    -0.15500
F1987       F  0.10534936  0.93685388  0.43354148    -0.19000
F1988       F  0.11091513  0.99875262  0.29655531    -0.22400
F1989       F  0.13313536  0.04130365  0.31159747    -0.23900
F1990       F  0.08399394  0.03491440  0.31812099    -0.17900
F1991       F  0.16653906  0.91918891  0.27196753    -0.20300
F1992       F  0.21480848  0.92660448  0.26166464    -0.21500
F1993       F  0.17917918  0.95059148  0.23543187    -0.18700
F1994       F  0.22398040  0.04817856  0.35335032    -0.18800
F1995       F  0.20374804  0.01365186  0.38336451    -0.22600
F1996       F  0.17468148  0.04859952  0.36167799    -0.24200
C1997       C  0.81401268  0.98718153  0.32172190    -0.11000
C1998       C  0.82436063  0.01278771  0.33649653     0.11600
C1999       C  0.81292082  0.04120129  0.32846773    -0.02800
C2000       C  0.79179934  0.04296426  0.30532318    -0.05600
C2001       C  0.78173966  0.01743240  0.29024777    -0.16300
C2002       C  0.79294940  0.98893566  0.29851170     0.02600
C2003       C  0.84908539  0.00943434  0.35837752     0.12500
C2004       C  0.82354902  0.06962706  0.34368302     0.63200
H2005       H  0.78415663  0.06460717  0.29771850     0.12600
C2006       C  0.78486415  0.95986991  0.28292143     0.55300
H2007       H  0.82335928  0.96561332  0.32766104     0.08400
C2008       C  0.84419074  0.00033219  0.38815204    -0.05500
C2009       C  0.86878666  0.99836657  0.40756467    -0.06200
C2010       C  0.89823759  0.00476526  0.39823821    -0.15800
C2011       C  0.90284688  0.01423099  0.36811181    -0.01400
C2012       C  0.87812515  0.01568639  0.34870543    -0.08900
C2013       C  0.81313193  0.99246541  0.39926644     0.65400
H2014       H  0.86490850  0.99172094  0.43044235     0.10800
C2015       C  0.93312294  0.02401941  0.35630010     0.63800
H2016       H  0.88111540  0.02225004  0.32560318     0.08200
F2017       F  0.77304615  0.94020808  0.30362191    -0.19300
F2018       F  0.81037410  0.94736239  0.27083092    -0.15500
F2019       F  0.76431420  0.96327537  0.26021101    -0.19000
F2020       F  0.85354827  0.07397798  0.33814591    -0.22400
F2021       F  0.81909250  0.06752957  0.37415737    -0.23900
F2022       F  0.80833119  0.09457702  0.33349683    -0.17900
F2023       F  0.93129744  0.03549755  0.32761523    -0.20300
F2024       F  0.95242196  0.99990633  0.35547560    -0.21500
F2025       F  0.94466931  0.04623736  0.37438822    -0.18700
F2026       F  0.81293514  0.98599512  0.42951122    -0.18800
F2027       F  0.80268783  0.96766793  0.38414736    -0.22600
F2028       F  0.79384561  0.01610183  0.39447757    -0.24200
C2029       C  0.11418427  0.84434148  0.50802860    -0.11000
C2030       C  0.14343995  0.85216638  0.50070021     0.11600
C2031       C  0.15064398  0.88244489  0.49532560    -0.02800
C2032       C  0.12766527  0.90390530  0.49625462    -0.05600
C2033       C  0.09772553  0.89614183  0.50217865    -0.16300
C2034       C  0.09122075  0.86576238  0.50967622     0.02600
C2035       C  0.16538199  0.82776577  0.49587741     0.12500
C2036       C  0.18247484  0.89190460  0.48831457     0.63200
H2037       H  0.13305725  0.92698802  0.49172193     0.12600
C2038       C  0.06075160  0.85562030  0.52049568     0.55300
H2039       H  0.10938420  0.82093628  0.51192278     0.08400
C2040       C  0.18089090  0.81364031  0.51953789    -0.05500
C2041       C  0.20229146  0.79163302  0.51249957    -0.06200
C2042       C  0.20736100  0.78254343  0.48290162    -0.15800
C2043       C  0.19082028  0.79587680  0.45943250    -0.01400
C2044       C  0.17006061  0.81832743  0.46644016    -0.08900
C2045       C  0.17424351  0.82121254  0.55192153     0.65400
H2046       H  0.21500430  0.78087778  0.53003626     0.10800
C2047       C  0.19510392  0.78680037  0.42709409     0.63800
H2048       H  0.15719487  0.82892112  0.44888902     0.08200
F2049       F  0.05172019  0.87373316  0.54381363    -0.19300
F2050       F  0.06122762  0.82648841  0.53095932    -0.15500
F2051       F  0.04026755  0.85688044  0.49743182    -0.19000
F2052       F  0.19194128  0.87868359  0.46208079    -0.22400
F2053       F  0.20124003  0.88325242  0.51124533    -0.23900
F2054       F  0.18496488  0.92256155  0.48496217    -0.17900
F2055       F  0.18481312  0.75809864  0.42299235    -0.20300
F2056       F  0.22492205  0.78819298  0.41944365    -0.21500
F2057       F  0.17945044  0.80521131  0.40776642    -0.18700
F2058       F  0.19319903  0.80635694  0.57131868    -0.18800
F2059       F  0.14531707  0.81295813  0.55870208    -0.22600
F2060       F  0.17740154  0.85155459  0.55672654    -0.24200
C2061       C  0.83401712  0.80753195  0.46805736    -0.11000
C2062       C  0.83436844  0.82564946  0.49360915     0.11600
C2063       C  0.81143386  0.82262807  0.51512824    -0.02800
C2064       C  0.78964543  0.80036502  0.51095017    -0.05600
C2065       C  0.78903914  0.78236539  0.48526841    -0.16300
C2066       C  0.81112124  0.78664208  0.46292578     0.02600
C2067       C  0.85703502  0.84986685  0.49548954     0.12500
C2068       C  0.80948820  0.84345699  0.54186923     0.63200
H2069       H  0.77243534  0.79716864  0.52752617     0.12600
C2070       C  0.81084712  0.77125938  0.43273440     0.55300
H2071       H  0.85106525  0.81083521  0.45118312     0.08400
C2072       C  0.88587207  0.84525913  0.50736181    -0.05500
C2073       C  0.90579178  0.86959609  0.50845294    -0.06200
C2074       C  0.89814782  0.89814602  0.49737266    -0.15800
C2075       C  0.86910511  0.90238252  0.48497659    -0.01400
C2076       C  0.84924659  0.87801381  0.48428690    -0.08900
C2077       C  0.89576422  0.81458503  0.51809287     0.65400
H2078       H  0.92781935  0.86628416  0.51777919     0.10800
C2079       C  0.85899629  0.93187950  0.47146031     0.63800
H2080       H  0.82714326  0.88062767  0.47488036     0.08200
F2081       F  0.83487078  0.75197206  0.43083505    -0.19300
F2082       F  0.81340337  0.79252429  0.41039150    -0.15500
F2083       F  0.78496841  0.75543079  0.42746806    -0.19000
F2084       F  0.80540644  0.87252844  0.53220073    -0.22400
F2085       F  0.83541361  0.84195734  0.55846308    -0.23900
F2086       F  0.78588710  0.83619340  0.56043312    -0.17900
F2087       F  0.83106905  0.92976498  0.45843932    -0.20300
F2088       F  0.87888119  0.94051018  0.44949587    -0.21500
F2089       F  0.85731566  0.95359368  0.49337931    -0.18700
F2090       F  0.92457433  0.81499389  0.52921768    -0.18800
F2091       F  0.89486600  0.79460224  0.49457885    -0.22600
F2092       F  0.87710311  0.80452605  0.54050097    -0.24200
C2093       C  0.84797665  0.11451133  0.48780579    -0.11000
C2094       C  0.85351658  0.14161422  0.50244720     0.11600
C2095       C  0.88236588  0.14692798  0.51444623    -0.02800
C2096       C  0.90405491  0.12418245  0.51255207    -0.05600
C2097       C  0.89863990  0.09703532  0.49767073    -0.16300
C2098       C  0.87028802  0.09268698  0.48387551     0.02600
C2099       C  0.82813415  0.16298471  0.50586394     0.12500
C2100       C  0.89168754  0.17589873  0.52948670     0.63200
H2101       H  0.92564114  0.12783059  0.52283719     0.12600
C2102       C  0.86357737  0.06604826  0.46383762     0.55300
H2103       H  0.82568432  0.11044297  0.47948594     0.08400
C2104       C  0.81551755  0.17847039  0.48121576    -0.05500
C2105       C  0.79184007  0.19850830  0.48639332    -0.06200
C2106       C  0.78170631  0.20485748  0.51528914    -0.15800
C2107       C  0.79384155  0.18899350  0.53987878    -0.01400
C2108       C  0.81666214  0.16802711  0.53463167    -0.08900
C2109       C  0.82764293  0.17486396  0.44973977     0.65400
H2110       H  0.78172828  0.21051824  0.46798365     0.10800
C2111       C  0.78379738  0.19325674  0.57194582     0.63800
H2112       H  0.82618007  0.15590339  0.55333720     0.08200
F2113       F  0.88610829  0.06281489  0.44297191    -0.19300
F2114       F  0.83709018  0.06973351  0.44834162    -0.15500
F2115       F  0.86105724  0.04023321  0.48063612    -0.19000
F2116       F  0.89593628  0.17069845  0.55964789    -0.22400
F2117       F  0.87117454  0.19871762  0.52614575    -0.23900
F2118       F  0.91829148  0.18565535  0.51723043    -0.17900
F2119       F  0.77538187  0.16593180  0.58374503    -0.20300
F2120       F  0.75992999  0.21256413  0.57473279    -0.21500
F2121       F  0.80728553  0.20439881  0.58855256    -0.18700
F2122       F  0.81620325  0.19628236  0.43054867    -0.18800
F2123       F  0.82007576  0.14708477  0.43864643    -0.22600
F2124       F  0.85835129  0.17778643  0.44983612    -0.24200
C2125       C  0.14318979  0.11837905  0.47585444    -0.11000
C2126       C  0.13981387  0.14405971  0.49340125     0.11600
C2127       C  0.11405919  0.14743621  0.51138169    -0.02800
C2128       C  0.09349256  0.12361152  0.51284771    -0.05600
C2129       C  0.09751293  0.09716023  0.49623476    -0.16300
C2130       C  0.12233928  0.09491518  0.47660390     0.02600
C2131       C  0.16381917  0.16694801  0.49189165     0.12500
C2132       C  0.10799875  0.17633541  0.52817671     0.63200
H2133       H  0.07397117  0.12551469  0.52697625     0.12600
C2134       C  0.12639995  0.06855093  0.45556927     0.55300
H2135       H  0.16265522  0.11682767  0.46160232     0.08400
C2136       C  0.18945517  0.16518739  0.51026158    -0.05500
C2137       C  0.21202515  0.18678979  0.50676007    -0.06200
C2138       C  0.21090706  0.20839689  0.48398863    -0.15800
C2139       C  0.18651496  0.20814444  0.46375018    -0.01400
C2140       C  0.16268572  0.18836290  0.46902383    -0.08900
C2141       C  0.19355354  0.13972917  0.53239837     0.65400
H2142       H  0.23107175  0.18674087  0.52155562     0.10800
C2143       C  0.18536378  0.22645754  0.43522371     0.63800
H2144       H  0.14370766  0.18841090  0.45400605     0.08200
F2145       F  0.13326870  0.04310038  0.47169928    -0.19300
F2146       F  0.14927098  0.07334940  0.43535261    -0.15500
F2147       F  0.10049638  0.06394991  0.43941824    -0.19000
F2148       F  0.10659508  0.19987057  0.50817952    -0.22400
F2149       F  0.13048639  0.18185841  0.54851161    -0.23900
F2150       F  0.08125226  0.17528278  0.54362078    -0.17900
F2151       F  0.17874169  0.20788252  0.41142098    -0.20300
F2152       F  0.21207257  0.24037017  0.42872349    -0.21500
F2153       F  0.16318780  0.24780249  0.43756242    -0.18700
F2154       F  0.21990438  0.14239918  0.54826303    -0.18800
F2155       F  0.19429169  0.11283547  0.51721785    -0.22600
F2156       F  0.17029436  0.13915047  0.55261749    -0.24200
C2157       C  0.02651728  0.67419188  0.17873133    -0.11000
C2158       C  0.00217349  0.65490502  0.17624639     0.11600
C2159       C  0.97920991  0.65565831  0.19789919    -0.02800
C2160       C  0.97925791  0.67896374  0.21898058    -0.05600
C2161       C  0.00225038  0.70021907  0.21951627    -0.16300
C2162       C  0.02740438  0.69643748  0.20062542     0.02600
C2163       C  0.00196136  0.63377894  0.15095926     0.12500
C2164       C  0.95484853  0.63214406  0.19843944     0.63200
H2165       H  0.96047740  0.68177084  0.23393085     0.12600
C2166       C  0.05556050  0.71517379  0.20232871     0.55300
H2167       H  0.04486209  0.67209758  0.16305965     0.08400
C2168       C  0.99072535  0.64182187  0.12253959    -0.05500
C2169       C  0.99143056  0.62046640  0.09954413    -0.06200
C2170       C  0.00398125  0.59197714  0.10390180    -0.15800
C2171       C  0.01714559  0.58490202  0.13209469    -0.01400
C2172       C  0.01537617  0.60596664  0.15521097    -0.08900
C2173       C  0.97850152  0.67294464  0.11649761     0.65400
H2174       H  0.98198611  0.62589116  0.07794734     0.10800
C2175       C  0.03385797  0.55587702  0.13808393     0.63800
H2176       H  0.02461625  0.60097761  0.17701741     0.08200
F2177       F  0.05839578  0.73184345  0.17643757    -0.19300
F2178       F  0.07998891  0.69641046  0.20479777    -0.15500
F2179       F  0.05598363  0.73421288  0.22661863    -0.19000
F2180       F  0.96747870  0.60426586  0.20276202    -0.22400
F2181       F  0.93944336  0.63217800  0.17170584    -0.23900
F2182       F  0.93464791  0.63711357  0.22129802    -0.17900
F2183       F  0.05029304  0.55721537  0.16423786    -0.20300
F2184       F  0.05359344  0.55009073  0.11506302    -0.21500
F2185       F  0.01388506  0.53254151  0.14087375    -0.18700
F2186       F  0.96893292  0.67613434  0.08725729    -0.18800
F2187       F  0.00048131  0.69398995  0.12157175    -0.22600
F2188       F  0.95460577  0.67871650  0.13511972    -0.24200
C2189       C  0.95895514  0.82671697  0.31528745    -0.11000
C2190       C  0.97960888  0.82362495  0.33841156     0.11600
C2191       C  0.99620852  0.79688264  0.34125191    -0.02800
C2192       C  0.99454085  0.77563978  0.31813161    -0.05600
C2193       C  0.97589670  0.78008802  0.29330239    -0.16300
C2194       C  0.95629631  0.80513189  0.29285208     0.02600
C2195       C  0.98342585  0.84915655  0.35898122     0.12500
C2196       C  0.01558297  0.79105601  0.36844847     0.63200
H2197       H  0.00924989  0.75646205  0.31842432     0.12600
C2198       C  0.93277594  0.81095839  0.26907445     0.55300
H2199       H  0.94530933  0.84673593  0.31429807     0.08400
C2200       C  0.00347755  0.87281721  0.35272913    -0.05500
C2201       C  0.00590111  0.89643998  0.37335947    -0.06200
C2202       C  0.98866196  0.89702322  0.39950517    -0.15800
C2203       C  0.96713873  0.87415883  0.40454821    -0.01400
C2204       C  0.96515661  0.85044841  0.38418219    -0.08900
C2205       C  0.02208189  0.87302892  0.32435240     0.65400
H2206       H  0.02169569  0.91434164  0.36953048     0.10800
C2207       C  0.94580967  0.87479741  0.43090565     0.63800
H2208       H  0.94938346  0.83247826  0.38785666     0.08200
F2209       F  0.90549612  0.81555146  0.28278138    -0.19300
F2210       F  0.92934136  0.78766654  0.24918698    -0.15500
F2211       F  0.94027495  0.83643289  0.25323240    -0.19000
F2212       F  0.99784053  0.79031589  0.39369979    -0.22400
F2213       F  0.03659167  0.81339984  0.37166266    -0.23900
F2214       F  0.03047194  0.76401446  0.36638342    -0.17900
F2215       F  0.93372492  0.90307250  0.43392198    -0.20300
F2216       F  0.96084986  0.86692377  0.45668992    -0.21500
F2217       F  0.92237635  0.85499330  0.42723353    -0.18700
F2218       F  0.04010752  0.89807359  0.32261531    -0.18800
F2219       F  0.00357491  0.87293045  0.29965637    -0.22600
F2220       F  0.04020049  0.84805291  0.32339806    -0.24200
C2221       C  0.98900439  0.33470682  0.80330742    -0.11000
C2222       C  0.00990529  0.33705879  0.82647097     0.11600
C2223       C  0.03273691  0.31546265  0.82935797    -0.02800
C2224       C  0.03503212  0.29323936  0.80748612    -0.05600
C2225       C  0.01377026  0.29022816  0.78461312    -0.16300
C2226       C  0.98944789  0.31050582  0.78326918     0.02600
C2227       C  0.00574412  0.36062266  0.84917950     0.12500
C2228       C  0.05377070  0.31507094  0.85604498     0.63200
H2229       H  0.05296785  0.27705339  0.80879025     0.12600
C2230       C  0.96239349  0.30646840  0.76330301     0.55300
H2231       H  0.97099183  0.35086046  0.80220591     0.08400
C2232       C  0.01965325  0.38878279  0.84669553    -0.05500
C2233       C  0.01758933  0.40864770  0.87091746    -0.06200
C2234       C  0.00096394  0.40156312  0.89669090    -0.15800
C2235       C  0.98481145  0.37430170  0.89779666    -0.01400
C2236       C  0.98793579  0.35404442  0.87403457    -0.08900
C2237       C  0.03554037  0.39801579  0.81814765     0.65400
H2238       H  0.02896852  0.42996936  0.86984861     0.10800
C2239       C  0.96343895  0.36700551  0.92314566     0.63800
H2240       H  0.97681363  0.33256832  0.87480102     0.08200
F2241       F  0.96389818  0.32649692  0.73983487    -0.19300
F2242       F  0.93665598  0.31212724  0.77944188    -0.15500
F2243       F  0.95994038  0.27778880  0.75217923    -0.19000
F2244       F  0.03754790  0.31236920  0.88217477    -0.22400
F2245       F  0.07016629  0.34117042  0.85704045    -0.23900
F2246       F  0.07353060  0.29129272  0.85482455    -0.17900
F2247       F  0.94645381  0.34194493  0.91694858    -0.20300
F2248       F  0.94409120  0.39071551  0.92757522    -0.21500
F2249       F  0.97913161  0.36144606  0.94914051    -0.18700
F2250       F  0.04850962  0.42596660  0.82069137    -0.18800
F2251       F  0.01515613  0.39898457  0.79498225    -0.22600
F2252       F  0.05771309  0.37775313  0.81105697    -0.24200
C2253       C  0.01926161  0.12000205  0.64378314    -0.11000
C2254       C  0.00860885  0.14791867  0.63429370     0.11600
C2255       C  0.99656798  0.15113532  0.60541242    -0.02800
C2256       C  0.99269574  0.12540503  0.58794908    -0.05600
C2257       C  0.00314428  0.09707233  0.59719259    -0.16300
C2258       C  0.01758672  0.09450169  0.62539783     0.02600
C2259       C  0.00975154  0.17317132  0.65560640     0.12500
C2260       C  0.98985849  0.18180264  0.59237147     0.63200
H2261       H  0.98234112  0.12758874  0.56621375     0.12600
C2262       C  0.03231152  0.06569019  0.63577939     0.55300
H2263       H  0.02906961  0.11847156  0.66584597     0.08400
C2264       C  0.98595824  0.17865389  0.67563066    -0.05500
C2265       C  0.98941168  0.20106301  0.69721833    -0.06200
C2266       C  0.01625088  0.21681457  0.70036543    -0.15800
C2267       C  0.03988810  0.21173557  0.68008525    -0.01400
C2268       C  0.03601265  0.19014238  0.65751519    -0.08900
C2269       C  0.95787028  0.15959025  0.67553113     0.65400
H2270       H  0.97194323  0.20492258  0.71349800     0.10800
C2271       C  0.06938272  0.22799348  0.68322772     0.63800
H2272       H  0.05394550  0.18529208  0.64204490     0.08200
F2273       F  0.01086847  0.04414682  0.64111397    -0.19300
F2274       F  0.04832969  0.06969148  0.66191928    -0.15500
F2275       F  0.05200590  0.05564716  0.61420192    -0.19000
F2276       F  0.01609900  0.19790861  0.59047931    -0.22400
F2277       F  0.96999339  0.19726301  0.61018428    -0.23900
F2278       F  0.97775801  0.17988079  0.56398173    -0.17900
F2279       F  0.08970202  0.21918817  0.66166993    -0.20300
F2280       F  0.08166208  0.22221969  0.71098501    -0.21500
F2281       F  0.06486467  0.25837265  0.68020532    -0.18700
F2282       F  0.93775273  0.16863626  0.69718768    -0.18800
F2283       F  0.96521052  0.13008998  0.68110723    -0.22600
F2284       F  0.94380100  0.16143705  0.64815541    -0.24200
C2285       C  0.00680515  0.65944278  0.80564070    -0.11000
C2286       C  0.98332167  0.65512042  0.82584440     0.11600
C2287       C  0.95720233  0.67263338  0.82373661    -0.02800
C2288       C  0.95543321  0.69397017  0.80088889    -0.05600
C2289       C  0.97946901  0.69951707  0.78150585    -0.16300
C2290       C  0.00591925  0.68226095  0.78407293     0.02600
C2291       C  0.98801840  0.63423674  0.85087522     0.12500
C2292       C  0.93216682  0.67018406  0.84658916     0.63200
H2293       H  0.93573323  0.70788031  0.79901812     0.12600
C2294       C  0.03405448  0.68783769  0.76598165     0.55300
H2295       H  0.02672808  0.64588472  0.80798993     0.08400
C2296       C  0.98039342  0.60380832  0.84870115    -0.05500
C2297       C  0.98410677  0.58581425  0.87398931    -0.06200
C2298       C  0.99686155  0.59670836  0.90071639    -0.15800
C2299       C  0.00617829  0.62703995  0.90213092    -0.01400
C2300       C  0.00110786  0.64538219  0.87706305    -0.08900
C2301       C  0.96926108  0.59018623  0.81960622     0.65400
H2302       H  0.97700853  0.56273068  0.87282108     0.10800
C2303       C  0.02230660  0.63997865  0.92907292     0.63800
H2304       H  0.00737475  0.66875685  0.87756687     0.08200
F2305       F  0.03492406  0.66806726  0.74229136    -0.19300
F2306       F  0.05907303  0.68318894  0.78352650    -0.15500
F2307       F  0.03577087  0.71674552  0.75525795    -0.19000
F2308       F  0.94282291  0.67763933  0.87457498    -0.22400
F2309       F  0.92110977  0.64141309  0.84753748    -0.23900
F2310       F  0.90868801  0.68917865  0.83995489    -0.17900
F2311       F  0.03234135  0.66875712  0.92372532    -0.20300
F2312       F  0.04681884  0.62248896  0.93596889    -0.21500
F2313       F  0.00339424  0.64117203  0.95338904    -0.18700
F2314       F  0.96422577  0.55975950  0.82228778    -0.18800
F2315       F  0.99031067  0.59439248  0.79744230    -0.22600
F2316       F  0.94287744  0.60346279  0.81083329    -0.24200
C2317       C  0.95994080  0.80209033  0.65648663    -0.11000
C2318       C  0.98643974  0.81868101  0.65453591     0.11600
C2319       C  0.01039189  0.81235446  0.67411786    -0.02800
C2320       C  0.00669558  0.78976420  0.69555745    -0.05600
C2321       C  0.97980776  0.77406127  0.69833939    -0.16300
C2322       C  0.95624748  0.77957156  0.67811519     0.02600
C2323       C  0.98757733  0.84387684  0.63307694     0.12500
C2324       C  0.03894818  0.83059734  0.67374151     0.63200
H2325       H  0.02406241  0.78560111  0.71187445     0.12600
C2326       C  0.92736205  0.76202121  0.67966405     0.55300
H2327       H  0.94192437  0.80745242  0.64127627     0.08400
C2328       C  0.99435215  0.83958071  0.60262334    -0.05500
C2329       C  0.99485819  0.86465843  0.58374346    -0.06200
C2330       C  0.98909809  0.89392429  0.59418599    -0.15800
C2331       C  0.98012874  0.89764009  0.62453632    -0.01400
C2332       C  0.97986989  0.87240777  0.64341970    -0.08900
C2333       C  0.00167780  0.80876671  0.59018470     0.65400
H2334       H  0.00023884  0.86132562  0.56046790     0.10800
C2335       C  0.96955816  0.92741969  0.63702149     0.63800
H2336       H  0.97360950  0.87465751  0.66668293     0.08200
F2337       F  0.93326605  0.73219448  0.67437126    -0.19300
F2338       F  0.90696311  0.77162262  0.65850961    -0.15500
F2339       F  0.91444809  0.76506398  0.70755290    -0.19000
F2340       F  0.03280552  0.85972242  0.68198369    -0.22400
F2341       F  0.05131454  0.83056375  0.64549562    -0.23900
F2342       F  0.06000373  0.81925137  0.69334808    -0.17900
F2343       F  0.94706515  0.93880164  0.61916418    -0.20300
F2344       F  0.99301370  0.94737692  0.63826623    -0.21500
F2345       F  0.95825540  0.92461454  0.66567702    -0.18700
F2346       F  0.00490235  0.80924376  0.55943930    -0.18800
F2347       F  0.97917627  0.78877437  0.59688093    -0.22600
F2348       F  0.02804400  0.79850416  0.60242716    -0.24200
C2349       C  0.17099224  0.67235650  0.44706357    -0.11000
C2350       C  0.15322612  0.67103939  0.47272882     0.11600
C2351       C  0.15755613  0.69220667  0.49585892    -0.02800
C2352       C  0.18005903  0.71393833  0.49254462    -0.05600
C2353       C  0.19863515  0.71453630  0.46729597    -0.16300
C2354       C  0.19329788  0.69406928  0.44360109     0.02600
C2355       C  0.13206925  0.64567029  0.47585284     0.12500
C2356       C  0.13987306  0.69054852  0.52476089     0.63200
H2357       H  0.18492828  0.72896680  0.51083017     0.12600
C2358       C  0.21075982  0.69359174  0.41447750     0.55300
H2359       H  0.16778376  0.65577100  0.42970388     0.08400
C2360       C  0.10395880  0.64515228  0.46152306    -0.05500
C2361       C  0.08501396  0.62057336  0.46652057    -0.06200
C2362       C  0.09325917  0.59671372  0.48532437    -0.15800
C2363       C  0.12158499  0.59733458  0.49950756    -0.01400
C2364       C  0.14076371  0.62153915  0.49378533    -0.08900
C2365       C  0.09392799  0.67052783  0.44132066     0.65400
H2366       H  0.06344693  0.61979181  0.45565505     0.10800
C2367       C  0.13100193  0.57383394  0.52208039     0.63800
H2368       H  0.16270618  0.62224475  0.50387053     0.08200
F2369       F  0.22876597  0.71835495  0.41061456    -0.19300
F2370       F  0.19107027  0.69280120  0.39068929    -0.15500
F2371       F  0.22836343  0.66821615  0.41363209    -0.19000
F2372       F  0.14800627  0.66524124  0.54053237    -0.22400
F2373       F  0.10967083  0.68938114  0.51866808    -0.23900
F2374       F  0.14501562  0.71512729  0.54279080    -0.17900
F2375       F  0.15742974  0.58147598  0.53606681    -0.20300
F2376       F  0.13529415  0.54660730  0.50814937    -0.21500
F2377       F  0.10924507  0.57112688  0.54382764    -0.18700
F2378       F  0.06562758  0.66569048  0.42996566    -0.18800
F2379       F  0.11326715  0.67331399  0.41744806    -0.22600
F2380       F  0.09351928  0.69702059  0.45718665    -0.24200
C2381       C  0.89111151  0.33864052  0.52705899    -0.11000
C2382       C  0.86327853  0.33964188  0.51314803     0.11600
C2383       C  0.85467118  0.36561949  0.49717519    -0.02800
C2384       C  0.87524994  0.38933267  0.49421697    -0.05600
C2385       C  0.90361520  0.38818333  0.50759014    -0.16300
C2386       C  0.91132821  0.36259391  0.52510678     0.02600
C2387       C  0.84229542  0.31447932  0.51843621     0.12500
C2388       C  0.82347803  0.36850296  0.48421578     0.63200
H2389       H  0.86925380  0.40904381  0.48150532     0.12600
C2390       C  0.94015693  0.36069877  0.54287142     0.55300
H2391       H  0.89668257  0.31889665  0.53993727     0.08400
C2392       C  0.83993599  0.28968957  0.49897184    -0.05500
C2393       C  0.81578497  0.26984669  0.50275316    -0.06200
C2394       C  0.79571719  0.27275297  0.52676253    -0.15800
C2395       C  0.80127710  0.29502050  0.54868219    -0.01400
C2396       C  0.82386469  0.31606925  0.54356952    -0.08900
C2397       C  0.86287996  0.28422903  0.47462031     0.65400
H2398       H  0.81156511  0.25324144  0.48587246     0.10800
C2399       C  0.78335332  0.29840951  0.57722794     0.63800
H2400       H  0.82683876  0.33437508  0.55915849     0.08200
F2401       F  0.96392190  0.35625761  0.52371535    -0.19300
F2402       F  0.93986879  0.33725147  0.56309087    -0.15500
F2403       F  0.94421624  0.38675206  0.55895374    -0.19000
F2404       F  0.80271070  0.36755004  0.50703701    -0.22400
F2405       F  0.81789627  0.34533459  0.46460341    -0.23900
F2406       F  0.81972704  0.39513466  0.46891484    -0.17900
F2407       F  0.80258772  0.30182962  0.60114562    -0.20300
F2408       F  0.76560069  0.27389679  0.58319667    -0.21500
F2409       F  0.76556619  0.32359076  0.57511145    -0.18700
F2410       F  0.85616793  0.25909450  0.45788370    -0.18800
F2411       F  0.89054510  0.27991995  0.48758368    -0.22600
F2412       F  0.86439877  0.30843909  0.45549629    -0.24200
C2413       C  0.14803435  0.37407192  0.50807863    -0.11000
C2414       C  0.13804706  0.34534236  0.50075793     0.11600
C2415       C  0.10760322  0.34037779  0.49494107    -0.02800
C2416       C  0.08834963  0.36509244  0.49407847    -0.05600
C2417       C  0.09822901  0.39449919  0.50010133    -0.16300
C2418       C  0.12869325  0.39892123  0.50816155     0.02600
C2419       C  0.16058124  0.32163210  0.49596375     0.12500
C2420       C  0.09549260  0.30899435  0.49026678     0.63200
H2421       H  0.06514815  0.36131465  0.48867211     0.12600
C2422       C  0.14113182  0.42923454  0.51712561     0.55300
H2423       H  0.17154448  0.37692820  0.51282842     0.08400
C2424       C  0.17629164  0.31975677  0.46864242    -0.05500
C2425       C  0.19851538  0.29798729  0.46567135    -0.06200
C2426       C  0.20550085  0.27817997  0.48893152    -0.15800
C2427       C  0.18952315  0.27975669  0.51626496    -0.01400
C2428       C  0.16672668  0.30125365  0.51900239    -0.08900
C2429       C  0.17013946  0.34115671  0.44295033     0.65400
H2430       H  0.21154222  0.29694617  0.44531499     0.10800
C2431       C  0.19615366  0.26059994  0.54352451     0.63800
H2432       H  0.15439587  0.30298706  0.53976777     0.08200
F2433       F  0.14040015  0.44857974  0.49301615    -0.19300
F2434       F  0.17046801  0.42731309  0.52660380    -0.15500
F2435       F  0.12456739  0.44086880  0.54046465    -0.19000
F2436       F  0.09812110  0.29307099  0.51662795    -0.22400
F2437       F  0.11123491  0.29438321  0.46807930    -0.23900
F2438       F  0.06572053  0.30926745  0.48209851    -0.17900
F2439       F  0.19882224  0.27869708  0.56843142    -0.20300
F2440       F  0.22223352  0.24438033  0.54112929    -0.21500
F2441       F  0.17278691  0.24094664  0.54800661    -0.18700
F2442       F  0.18594194  0.33347152  0.41751476    -0.18800
F2443       F  0.17832472  0.36981580  0.45100632    -0.22600
F2444       F  0.14015019  0.34085377  0.43580497    -0.24200
C2445       C  0.84714577  0.61352519  0.49645939    -0.11000
C2446       C  0.85872904  0.64255363  0.49581605     0.11600
C2447       C  0.88964848  0.64720616  0.49816243    -0.02800
C2448       C  0.90831343  0.62215008  0.49959375    -0.05600
C2449       C  0.89724213  0.59250969  0.49863775    -0.16300
C2450       C  0.86574041  0.58817209  0.49707306     0.02600
C2451       C  0.83773337  0.66762988  0.49179943     0.12500
C2452       C  0.90286151  0.67852447  0.49889619     0.63200
H2453       H  0.93206053  0.62595310  0.50106577     0.12600
C2454       C  0.85132128  0.55750893  0.49479670     0.55300
H2455       H  0.82314835  0.61102032  0.49534334     0.08400
C2456       C  0.82487913  0.67400611  0.46364591    -0.05500
C2457       C  0.80340330  0.69662879  0.46192869    -0.06200
C2458       C  0.79447057  0.71272878  0.48720864    -0.15800
C2459       C  0.80753205  0.70656948  0.51536832    -0.01400
C2460       C  0.82937344  0.68418487  0.51700645    -0.08900
C2461       C  0.83323725  0.65666863  0.43565494     0.65400
H2462       H  0.79216482  0.70088715  0.44094707     0.10800
C2463       C  0.79866621  0.72157080  0.54448910     0.63800
H2464       H  0.83911752  0.67863771  0.53848206     0.08200
F2465       F  0.86126422  0.54331045  0.46925580    -0.19300
F2466       F  0.82052987  0.55925259  0.49301912    -0.15500
F2467       F  0.85822393  0.54055085  0.51970239    -0.19000
F2468       F  0.89316363  0.69339201  0.52414949    -0.22400
F2469       F  0.89409357  0.69436140  0.47384807    -0.23900
F2470       F  0.93372565  0.67802943  0.49950342    -0.17900
F2471       F  0.79142742  0.69993370  0.56537349    -0.20300
F2472       F  0.77447587  0.74045807  0.54179285    -0.21500
F2473       F  0.82258129  0.73793940  0.55507185    -0.18700
F2474       F  0.81901700  0.66779451  0.41052619    -0.18800
F2475       F  0.82518413  0.62701745  0.43868816    -0.22600
F2476       F  0.86363762  0.65846960  0.43091903    -0.24200
C2477       C  0.17901143  0.50893368  0.32084999    -0.11000
C2478       C  0.15793317  0.48591975  0.32165169     0.11600
C2479       C  0.15882516  0.46296496  0.29988031    -0.02800
C2480       C  0.18314922  0.46203169  0.27996024    -0.05600
C2481       C  0.20573838  0.48364824  0.28106439    -0.16300
C2482       C  0.20303247  0.50832323  0.30077803     0.02600
C2483       C  0.13562270  0.48652783  0.34610062     0.12500
C2484       C  0.13443427  0.43953431  0.29803390     0.63200
H2485       H  0.18536326  0.44380292  0.26420189     0.12600
C2486       C  0.22527527  0.53399555  0.30067282     0.55300
H2487       H  0.17703716  0.52688519  0.33695904     0.08400
C2488       C  0.14234598  0.47593608  0.37512461    -0.05500
C2489       C  0.12062549  0.47855189  0.39767764    -0.06200
C2490       C  0.09263405  0.49169941  0.39223030    -0.15800
C2491       C  0.08623911  0.50263305  0.36288043    -0.01400
C2492       C  0.10804989  0.49984819  0.34047277    -0.08900
C2493       C  0.17262976  0.46251884  0.38234159     0.65400
H2494       H  0.12546438  0.47026290  0.41988449     0.10800
C2495       C  0.05689089  0.51753574  0.35477619     0.63800
H2496       H  0.10384412  0.50814706  0.31812735     0.08200
F2497       F  0.25277835  0.52441686  0.31071143    -0.19300
F2498       F  0.21617274  0.55717858  0.31901599    -0.15500
F2499       F  0.22821117  0.54519292  0.27203537    -0.19000
F2500       F  0.10747255  0.45323893  0.29190418    -0.22400
F2501       F  0.13220143  0.42432110  0.32482919    -0.23900
F2502       F  0.13998389  0.41888653  0.27568496    -0.17900
F2503       F  0.05758320  0.53026693  0.32656909    -0.20300
F2504       F  0.05061588  0.54009326  0.37495848    -0.21500
F2505       F  0.03434507  0.49644246  0.35490571    -0.18700
F2506       F  0.17363925  0.45102516  0.41104961    -0.18800
F2507       F  0.19434167  0.48430367  0.37992210    -0.22600
F2508       F  0.17908405  0.43956656  0.36271619    -0.24200
C2509       C  0.81572783  0.46869217  0.32021163    -0.11000
C2510       C  0.83830223  0.48985411  0.32382446     0.11600
C2511       C  0.84092434  0.51392844  0.30344879    -0.02800
C2512       C  0.81817740  0.51818472  0.28218673    -0.05600
C2513       C  0.79380723  0.49863288  0.28065926    -0.16300
C2514       C  0.79330908  0.47252550  0.29871496     0.02600
C2515       C  0.85767417  0.48723039  0.35038628     0.03500
C2516       C  0.86739908  0.53503736  0.30462471     0.63200
H2517       H  0.81846038  0.53756495  0.26766188     0.12600
C2518       C  0.76920885  0.44884499  0.29558345     0.55300
H2519       H  0.81505184  0.44986973  0.33544027     0.08400
C2520       C  0.84962105  0.50023767  0.37806194    -0.05500
C2521       C  0.87029746  0.49943782  0.40165135    -0.06200
C2522       C  0.89781730  0.48478917  0.39863598    -0.15800
C2523       C  0.90409874  0.46870328  0.37191571    -0.01400
C2524       C  0.88410212  0.47090399  0.34791566    -0.08900
C2525       C  0.81903154  0.51411578  0.38273816     0.65400
H2526       H  0.86523878  0.51054582  0.42248033     0.10800
C2527       C  0.93137128  0.44874584  0.36862420     0.63800
H2528       H  0.88909921  0.46010490  0.32684200     0.08200
F2529       F  0.74183788  0.46015358  0.30404450    -0.19300
F2530       F  0.77504230  0.42407808  0.31323157    -0.15500
F2531       F  0.76767561  0.43937779  0.26627094    -0.19000
F2532       F  0.89335334  0.51910885  0.29954055    -0.22400
F2533       F  0.86912512  0.54853105  0.33234575    -0.23900
F2534       F  0.86537208  0.55728619  0.28320547    -0.17900
F2535       F  0.92811496  0.42877399  0.34525775    -0.20300
F2536       F  0.93560513  0.43217918  0.39440607    -0.21500
F2537       F  0.95634836  0.46597497  0.36300111    -0.18700
F2538       F  0.81632394  0.52696557  0.41072962    -0.18800
F2539       F  0.79747880  0.49217293  0.38016162    -0.22600
F2540       F  0.81373401  0.53604617  0.36161638    -0.24200
C2541       C  0.11425593  0.48463998  0.64606690    -0.11000
C2542       C  0.13953056  0.50246076  0.64230565     0.11600
C2543       C  0.14525391  0.51613675  0.61436923    -0.02800
C2544       C  0.12403917  0.51298226  0.59142383    -0.05600
C2545       C  0.09786350  0.49624516  0.59554260    -0.16300
C2546       C  0.09335383  0.48085810  0.62308933     0.02600
C2547       C  0.16151526  0.50271413  0.66686326     0.12500
C2548       C  0.17374711  0.53367409  0.60881079     0.63200
H2549       H  0.12766364  0.52379157  0.57012763     0.12600
C2550       C  0.06747159  0.45944806  0.62817963     0.55300
H2551       H  0.11124312  0.47337688  0.66729462     0.08400
C2552       C  0.15951251  0.52230637  0.69158878    -0.05500
C2553       C  0.18180057  0.52084384  0.71375692    -0.06200
C2554       C  0.20556322  0.50050272  0.71156451    -0.15800
C2555       C  0.20639024  0.47980481  0.68743448    -0.01400
C2556       C  0.18412432  0.48131243  0.66567973    -0.08900
C2557       C  0.13434425  0.54489306  0.69410892     0.65400
H2558       H  0.18171349  0.53661105  0.73210158     0.10800
C2559       C  0.23027531  0.45606662  0.68260314     0.63800
H2560       H  0.18468656  0.46585649  0.64700986     0.08200
F2561       F  0.04127793  0.47528335  0.63215315    -0.19300
F2562       F  0.07172334  0.44190885  0.65333227    -0.15500
F2563       F  0.06471909  0.44043060  0.60400304    -0.19000
F2564       F  0.19828716  0.51540052  0.61275300    -0.22400
F2565       F  0.17560450  0.55741659  0.62841949    -0.23900
F2566       F  0.17491676  0.54492728  0.58007694    -0.17900
F2567       F  0.21673169  0.42856129  0.67867427    -0.20300
F2568       F  0.25010533  0.45323822  0.70598874    -0.21500
F2569       F  0.24623130  0.46294760  0.65706318    -0.18700
F2570       F  0.13689276  0.56215324  0.71962978    -0.18800
F2571       F  0.10726847  0.53019223  0.69513639    -0.22600
F2572       F  0.13453967  0.56384007  0.66971957    -0.24200
C2573       C  0.88877845  0.51889085  0.64847487    -0.11000
C2574       C  0.86298024  0.50150480  0.64824058     0.11600
C2575       C  0.85589057  0.48378374  0.62303172    -0.02800
C2576       C  0.87663919  0.48225771  0.59953124    -0.05600
C2577       C  0.90310611  0.49900189  0.60015860    -0.16300
C2578       C  0.90872225  0.51866160  0.62447201     0.02600
C2579       C  0.84198333  0.50591789  0.67305782     0.12500
C2580       C  0.82631844  0.46731954  0.62065545     0.63200
H2581       H  0.87234587  0.46799811  0.58047081     0.12600
C2582       C  0.93450799  0.54072021  0.62454165     0.55300
H2583       H  0.89275469  0.53328729  0.66751791     0.08400
C2584       C  0.84241271  0.48808521  0.69913384    -0.05500
C2585       C  0.81976938  0.49242719  0.72044642    -0.06200
C2586       C  0.79846818  0.51518024  0.71684104    -0.15800
C2587       C  0.80115473  0.53572433  0.69289860    -0.01400
C2588       C  0.82251756  0.53022201  0.67093654    -0.08900
C2589       C  0.86688326  0.46520212  0.70445059     0.65400
H2590       H  0.81770057  0.47722187  0.73916378     0.10800
C2591       C  0.78220181  0.56368294  0.68935705     0.63800
H2592       H  0.82392973  0.54496693  0.65172748     0.08200
F2593       F  0.96112485  0.52582235  0.62913320    -0.19300
F2594       F  0.93161208  0.56184609  0.64694468    -0.15500
F2595       F  0.93532890  0.55582714  0.59757561    -0.19000
F2596       F  0.80295975  0.48730919  0.62349895    -0.22400
F2597       F  0.82409745  0.44605532  0.64291917    -0.23900
F2598       F  0.82330399  0.45300695  0.59340956    -0.17900
F2599       F  0.80075942  0.58829465  0.68735616    -0.20300
F2600       F  0.76297223  0.56851739  0.71296406    -0.21500
F2601       F  0.76561479  0.56163251  0.66341386    -0.18700
F2602       F  0.86319714  0.45045595  0.73139773    -0.18800
F2603       F  0.89420763  0.47949653  0.70499971    -0.22600
F2604       F  0.86714266  0.44412360  0.68193118    -0.24200
C2605       C  0.97756290  0.61294153  0.34600804    -0.11000
C2606       C  0.98475454  0.64205807  0.35491214     0.11600
C2607       C  0.99107167  0.64771848  0.38527874    -0.02800
C2608       C  0.99298579  0.62335576  0.40522928    -0.05600
C2609       C  0.98731029  0.59354689  0.39629442    -0.16300
C2610       C  0.97802356  0.58857050  0.36612341     0.02600
C2611       C  0.98582895  0.66601611  0.33165253     0.12500
C2612       C  0.99502275  0.67948998  0.39661157     0.63200
H2613       H  0.99899297  0.62769858  0.42822109     0.12600
C2614       C  0.96813633  0.55817605  0.35465984     0.55300
H2615       H  0.97192020  0.60945069  0.32274579     0.08400
C2616       C  0.01176026  0.67123997  0.31434168    -0.05500
C2617       C  0.01112562  0.69374630  0.29226090    -0.06200
C2618       C  0.98518583  0.71028971  0.28605732    -0.15800
C2619       C  0.95876786  0.70383193  0.30242495    -0.01400
C2620       C  0.95990394  0.68247499  0.32559206    -0.08900
C2621       C  0.03983540  0.65276554  0.31895105     0.65400
H2622       H  0.03095595  0.69860786  0.27936021     0.10800
C2623       C  0.92858205  0.71746138  0.29567591     0.63800
H2624       H  0.93993766  0.67772586  0.33841489     0.08200
F2625       F  0.99232407  0.53923633  0.35302334    -0.19300
F2626       F  0.95577706  0.55996961  0.32635228    -0.15500
F2627       F  0.94676551  0.54613403  0.37340239    -0.19000
F2628       F  0.96888266  0.69532091  0.39224438    -0.22400
F2629       F  0.01783441  0.69359904  0.38138991    -0.23900
F2630       F  0.00170035  0.68021574  0.42679369    -0.17900
F2631       F  0.90741463  0.69504009  0.29378807    -0.20300
F2632       F  0.92806098  0.73274733  0.26895448    -0.21500
F2633       F  0.92071105  0.73670152  0.31852662    -0.18700
F2634       F  0.06260623  0.66162922  0.30004310    -0.18800
F2635       F  0.03384323  0.62298591  0.31334703    -0.22600
F2636       F  0.04980561  0.65566549  0.34801071    -0.24200
C2637       C  0.02225899  0.34853289  0.61930120    -0.11000
C2638       C  0.00678570  0.35375049  0.64596187     0.11600
C2639       C  0.99140608  0.38107535  0.64994071    -0.02800
C2640       C  0.99077532  0.40179476  0.62615656    -0.05600
C2641       C  0.00556679  0.39632676  0.59889327    -0.16300
C2642       C  0.02232827  0.36942724  0.59572244     0.02600
C2643       C  0.00817609  0.33041142  0.66967909     0.12500
C2644       C  0.97598017  0.38826550  0.67930788     0.63200
H2645       H  0.97851482  0.42249904  0.62869613     0.12600
C2646       C  0.04145033  0.36309979  0.56837745     0.55300
H2647       H  0.03448647  0.32774795  0.61721924     0.08400
C2648       C  0.98902251  0.30529587  0.66972147    -0.05500
C2649       C  0.99234579  0.28366991  0.69238141    -0.06200
C2650       C  0.01516407  0.28541995  0.71387720    -0.15800
C2651       C  0.03523983  0.31004358  0.71280643    -0.01400
C2652       C  0.03060272  0.33258588  0.69134031    -0.08900
C2653       C  0.96610026  0.30067426  0.64517828     0.65400
H2654       H  0.97737608  0.26475717  0.69322089     0.10800
C2655       C  0.06283689  0.31316144  0.73216636     0.63800
H2656       H  0.04562678  0.35156154  0.69054010     0.08200
F2657       F  0.02358278  0.35776302  0.54382286    -0.19300
F2658       F  0.05942488  0.33823413  0.57236480    -0.15500
F2659       F  0.05986588  0.38724158  0.56275800    -0.19000
F2660       F  0.99672970  0.38885537  0.70214344    -0.22400
F2661       F  0.95478100  0.36677621  0.68567453    -0.23900
F2662       F  0.96186365  0.41578446  0.67848444    -0.17900
F2663       F  0.08719217  0.31958561  0.71427744    -0.20300
F2664       F  0.06966951  0.28754184  0.74791076    -0.21500
F2665       F  0.05872926  0.33651008  0.75198751    -0.18700
F2666       F  0.94747984  0.27676833  0.65129571    -0.18800
F2667       F  0.98060816  0.29501013  0.61852143    -0.22600
F2668       F  0.94854046  0.32586167  0.64186660    -0.24200
C2669       C  0.96960207  0.65837061  0.68782361    -0.11000
C2670       C  0.99424409  0.66009093  0.66856999     0.11600
C2671       C  0.01345581  0.68517906  0.67037029    -0.02800
C2672       C  0.00796353  0.70705540  0.69237168    -0.05600
C2673       C  0.98308052  0.70554080  0.71138893    -0.16300
C2674       C  0.96289785  0.68129398  0.70831273     0.02600
C2675       C  0.99678422  0.63741791  0.64418935     0.12500
C2676       C  0.03898843  0.68936291  0.64847692     0.63200
H2677       H  0.02283340  0.72594025  0.69465031     0.12600
C2678       C  0.93301368  0.67955314  0.72417901     0.55300
H2679       H  0.95433959  0.63973005  0.68546467     0.08400
C2680       C  0.01016492  0.60905659  0.64828922    -0.05500
C2681       C  0.01064341  0.58876094  0.62408662    -0.06200
C2682       C  0.99762473  0.59553339  0.59612562    -0.15800
C2683       C  0.98364971  0.62402300  0.59252885    -0.01400
C2684       C  0.98368649  0.64429570  0.61665438    -0.08900
C2685       C  0.02331184  0.60010069  0.67828470     0.65400
H2686       H  0.02106488  0.56712566  0.62703348     0.10800
C2687       C  0.96740979  0.63295016  0.56410601     0.63800
H2688       H  0.97303597  0.66592170  0.61442106     0.08200
F2689       F  0.93402871  0.65725591  0.74555052    -0.19300
F2690       F  0.91093952  0.67266699  0.70371118    -0.15500
F2691       F  0.92487323  0.70610614  0.73761915    -0.19000
F2692       F  0.02773767  0.69323783  0.61999151    -0.22400
F2693       F  0.05740866  0.66459793  0.64875035    -0.23900
F2694       F  0.05610562  0.71415438  0.65539344    -0.17900
F2695       F  0.95294798  0.66017510  0.56696044    -0.20300
F2696       F  0.94613432  0.61165601  0.55739199    -0.21500
F2697       F  0.98744112  0.63558825  0.54077430    -0.18700
F2698       F  0.03604564  0.57190650  0.67737454    -0.18800
F2699       F  0.00114756  0.59987450  0.69975335    -0.22600
F2700       F  0.04514203  0.62017912  0.68670552    -0.24200
C2701       C  0.02590095  0.35010962  0.12016851    -0.11000
C2702       C  0.01377004  0.35707457  0.14815850     0.11600
C2703       C  0.99909133  0.38465860  0.15239743    -0.02800
C2704       C  0.99566371  0.40385171  0.12769227    -0.05600
C2705       C  0.00712135  0.39674606  0.09917746    -0.16300
C2706       C  0.02302104  0.36943720  0.09548918     0.02600
C2707       C  0.01736197  0.33486615  0.17256446     0.12500
C2708       C  0.98751744  0.39384687  0.18297013     0.63200
H2709       H  0.98410904  0.42485753  0.13063468     0.12600
C2710       C  0.03786026  0.36087614  0.06619233     0.55300
H2711       H  0.03768421  0.32908965  0.11787740     0.08400
C2712       C  0.99930681  0.30900026  0.17415459    -0.05500
C2713       C  0.00630974  0.28704631  0.19546031    -0.06200
C2714       C  0.03042499  0.29022394  0.21521746    -0.15800
C2715       C  0.04818674  0.31637790  0.21399230    -0.01400
C2716       C  0.04103984  0.33845829  0.19274935    -0.08900
C2717       C  0.97314243  0.30430620  0.15306524     0.65400
H2718       H  0.99352080  0.26653054  0.19619009     0.10800
C2719       C  0.07528776  0.32189627  0.23354610     0.63800
H2720       H  0.05491224  0.35822634  0.19100816     0.08200
F2721       F  0.05482020  0.33513772  0.06886727    -0.19300
F2722       F  0.05663521  0.38359255  0.05698738    -0.15500
F2723       F  0.01640159  0.35569675  0.04463462    -0.19000
F2724       F  0.01098337  0.39579040  0.20289517    -0.22400
F2725       F  0.96731530  0.37297223  0.19337763    -0.23900
F2726       F  0.97342627  0.42137757  0.18217985    -0.17900
F2727       F  0.09914615  0.33043812  0.21588965    -0.20300
F2728       F  0.08407140  0.29709581  0.24968162    -0.21500
F2729       F  0.06886562  0.34473996  0.25330902    -0.18700
F2730       F  0.95751505  0.27846508  0.15974414    -0.18800
F2731       F  0.98320940  0.30206823  0.12397736    -0.22600
F2732       F  0.95357442  0.32809462  0.15513013    -0.24200
C2733       C  0.04927158  0.17874129  0.33453003    -0.11000
C2734       C  0.01920962  0.17248441  0.34032422     0.11600
C2735       C  0.99664882  0.18965866  0.32633975    -0.02800
C2736       C  0.00508524  0.21057150  0.30448886    -0.05600
C2737       C  0.03508278  0.21481944  0.29672942    -0.16300
C2738       C  0.05772392  0.19975651  0.31287318     0.02600
C2739       C  0.01221237  0.14728038  0.36061520     0.12500
C2740       C  0.96389786  0.18542915  0.33392287     0.63200
H2741       H  0.98817824  0.22266317  0.29215574     0.12600
C2742       C  0.09088796  0.20470343  0.30821359     0.55300
H2743       H  0.06634855  0.16636125  0.34645059     0.08400
C2744       C  0.01447423  0.11716034  0.35129176    -0.05500
C2745       C  0.00937744  0.09435315  0.37230825    -0.06200
C2746       C  0.00171122  0.10070111  0.40213444    -0.15800
C2747       C  0.99735025  0.13128563  0.41069086    -0.01400
C2748       C  0.00370408  0.15386574  0.38983498    -0.08900
C2749       C  0.02266115  0.10918118  0.31934348     0.65400
H2750       H  0.01226541  0.07129483  0.36561118     0.10800
C2751       C  0.98594864  0.14090556  0.44131410     0.63800
H2752       H  0.00245571  0.17715769  0.39629563     0.08200
F2753       F  0.10382527  0.17841240  0.29840202    -0.19300
F2754       F  0.10375864  0.21268271  0.33513847    -0.15500
F2755       F  0.09719501  0.22699534  0.28779104    -0.19000
F2756       F  0.95887880  0.19359348  0.36326552    -0.22400
F2757       F  0.95583983  0.15585281  0.33010125    -0.23900
F2758       F  0.94562880  0.20279742  0.31599338    -0.17900
F2759       F  0.97795268  0.17081328  0.44181156    -0.20300
F2760       F  0.00794081  0.13681848  0.46261453    -0.21500
F2761       F  0.96079548  0.12465861  0.44883409    -0.18700
F2762       F  0.02069325  0.07873380  0.31420706    -0.18800
F2763       F  0.05159956  0.11798521  0.31343085    -0.22600
F2764       F  0.00355054  0.12344069  0.29970472    -0.24200
C2765       C  0.99702107  0.34217726  0.37826885    -0.11000
C2766       C  0.01163331  0.35029179  0.35180336     0.11600
C2767       C  0.02000290  0.38043665  0.34733979    -0.02800
C2768       C  0.01556326  0.40105860  0.37072945    -0.05600
C2769       C  0.00213896  0.39284031  0.39804544    -0.16300
C2770       C  0.99172881  0.36290371  0.40144814     0.02600
C2771       C  0.01746383  0.32664912  0.32905030     0.12500
C2772       C  0.03315674  0.39082601  0.31780854     0.63200
H2773       H  0.02299366  0.42389924  0.36785333     0.12600
C2774       C  0.97428625  0.35270425  0.42874039     0.55300
H2775       H  0.99004249  0.31912909  0.38070289     0.08400
C2776       C  0.04363289  0.30892344  0.32978257    -0.05500
C2777       C  0.04811281  0.28763826  0.30710927    -0.06200
C2778       C  0.02647759  0.28193193  0.28517396    -0.15800
C2779       C  0.99884923  0.29726937  0.28658018    -0.01400
C2780       C  0.99535844  0.32036310  0.30772064    -0.08900
C2781       C  0.06614954  0.31163114  0.35500126     0.65400
H2782       H  0.06854163  0.27479664  0.30647442     0.10800
C2783       C  0.97181432  0.28890861  0.26810138     0.63800
H2784       H  0.97462174  0.33282914  0.30841447     0.08200
F2785       F  0.99280541  0.35151029  0.45339819    -0.19300
F2786       F  0.96220201  0.32449813  0.42479248    -0.15500
F2787       F  0.95098293  0.37226025  0.43413951    -0.19000
F2788       F  0.01364898  0.38425181  0.29482175    -0.22400
F2789       F  0.05998177  0.37657847  0.31253075    -0.23900
F2790       F  0.03821789  0.42135699  0.31751698    -0.17900
F2791       F  0.94801475  0.28346346  0.28702037    -0.20300
F2792       F  0.97612520  0.26347715  0.25120083    -0.21500
F2793       F  0.96451640  0.31234635  0.24931893    -0.18700
F2794       F  0.08942011  0.29150419  0.35184878    -0.18800
F2795       F  0.05229677  0.30582249  0.38198051    -0.22600
F2796       F  0.07802288  0.34009211  0.35570878    -0.24200
loop_ 
_geom_bond_atom_site_label_1 
_geom_bond_atom_site_label_2 
_geom_bond_distance 
_geom_bond_site_symmetry_2 
_ccdc_geom_bond_type 
N1            C5   1.359       .  A
N1            C2   1.355       .  A
N1         C2778   1.445       .  S
C2            C3   1.381       .  A
C2         C2737   1.473       .  S
C3            C4   1.373       .  A
C3            H6   1.082       .  S
C4            C5   1.383       .  A
C4            H7   1.082       .  S
C5         C2714   1.477       .  S
O8          Zr44   2.453   1_455  S
O8           C19   1.293   1_455  A
O9          Zr43   2.448       .  S
O9           C20   1.295       .  A
O10         Zr16   2.410       .  S
O10          C21   1.285       .  A
O11         Zr16   2.418   1_455  S
O11          C22   1.286       .  A
O12         Zr46   2.466       .  S
O12          C22   1.299       .  A
O13         Zr45   2.454       .  S
O13          C21   1.296       .  A
O14         Zr16   2.467       .  S
O14          C20   1.295       .  A
O15         Zr16   2.450       .  S
O15          C19   1.295       .  A
Zr16         O17   2.336   1_655  S
Zr16         O18   2.345       .  S
Zr16         O26   2.340   1_655  S
Zr16         O24   2.335       .  S
O17         Zr43   2.339   1_455  S
O17         Zr46   2.348       .  S
O18         Zr44   2.338       .  S
O18         Zr45   2.346       .  S
C19        C2769   1.502   1_655  S
C20        C2609   1.513       .  S
C21        C2522   1.481       .  S
C22        C2490   1.497       .  S
H23          O24   0.966       .  S
O24         Zr43   2.346       .  S
O24         Zr45   2.351       .  S
H25          O26   0.966       .  S
O26         Zr44   2.337   1_455  S
O26         Zr46   2.341       .  S
O27         Zr43   2.459       .  S
O27          C50   1.294       .  A
O28         Zr44   2.449   1_455  S
O28          C51   1.292       .  A
O29         Zr45   2.456       .  S
O29          C52   1.294       .  A
O30         Zr46   2.447       .  S
O30          C53   1.293       .  A
O31         Zr46   2.455       .  S
O31          C54   1.293       .  A
O32         Zr45   2.479       .  S
O32          C55   1.300       .  A
O33         Zr47   2.413       .  S
O33          C56   1.286       .  A
O34         Zr47   2.408   1_455  S
O34          C57   1.285       .  A
O35         Zr45   2.444       .  S
O35          C56   1.293       .  A
O36         Zr46   2.463       .  S
O36          C57   1.297       .  A
O37         Zr43   2.412       .  S
O37          C52   1.289       .  A
O38         Zr44   2.423       .  S
O38          C55   1.287       .  A
O39         Zr44   2.417   1_455  S
O39          C54   1.290       .  A
O40         Zr43   2.435   1_455  S
O40          C53   1.292       .  A
O41         Zr47   2.455       .  S
O41          C50   1.295       .  A
O42         Zr47   2.446   1_455  S
O42          C51   1.294       .  A
Zr43         O49   2.339       .  S
Zr43         O61   2.336   1_655  S
Zr44         O48   2.335   1_655  S
Zr44         O59   2.339       .  S
Zr45         O49   2.355       .  S
Zr45         O59   2.345       .  S
Zr46         O48   2.343       .  S
Zr46         O61   2.350       .  S
Zr47         O48   2.335   1_655  S
Zr47         O49   2.331       .  S
Zr47         O61   2.340   1_655  S
Zr47         O59   2.342       .  S
C50        C2682   1.510       .  S
C51        C2641   1.497       .  S
C52        C2449   1.501       .  S
C53        C2362   1.488       .  S
C54        C2417   1.499       .  S
C55        C2385   1.497       .  S
C56        C2577   1.475       .  S
C57        C2545   1.484       .  S
H58          O59   0.966       .  S
H60          O61   0.966       .  S
N62          C66   1.358       .  A
N62          C63   1.361       .  A
N62        C2673   1.447       .  S
C63          C64   1.382       .  A
C63        C2289   1.476       .  S
C64          C65   1.367       .  A
C64          H67   1.082       .  S
C65          C66   1.380       .  A
C65          H68   1.082       .  S
C66        C2321   1.472       .  S
N69          C73   1.364       .  A
N69          C70   1.361       .  A
N69        C2650   1.450       .  S
C70          C71   1.380       .  A
C70        C2266   1.476       .  S
C71          C72   1.366       .  A
C71          H74   1.082       .  S
C72          C73   1.382       .  A
C72          H75   1.082       .  S
C73        C2225   1.481       .  S
N76          C80   1.364       .  A
N76          C77   1.360       .  A
N76        C2618   1.452       .  S
C77          C78   1.381       .  A
C77        C2161   1.476   1_655  S
C78          C79   1.365       .  A
C78          H81   1.082   1_655  S
C79          C80   1.384       .  A
C79          H82   1.082       .  S
C80        C2193   1.479       .  S
O83        Zr119   2.466   1_545  S
O83          C94   1.299   1_655  A
O84        Zr118   2.456   1_445  S
O84          C95   1.294       .  A
O85         Zr91   2.464       .  S
O85          C96   1.297       .  A
O86         Zr91   2.433   1_455  S
O86          C97   1.291       .  A
O87        Zr121   2.455   1_545  S
O87          C97   1.294       .  A
O88        Zr120   2.429   1_545  S
O88          C96   1.287       .  A
O89         Zr91   2.417   1_455  S
O89          C95   1.289       .  A
O90         Zr91   2.402   1_455  S
O90          C94   1.282       .  A
Zr91         O92   2.339   1_655  S
Zr91         O93   2.333       .  S
Zr91        O101   2.348   1_655  S
Zr91         O99   2.330       .  S
O92        Zr118   2.345   1_445  S
O92        Zr121   2.341   1_545  S
O93        Zr119   2.348   1_545  S
O93        Zr120   2.332   1_545  S
C94        C2746   1.496       .  S
C95        C2257   1.493       .  S
C96        C2097   1.498       .  S
C97        C2129   1.490       .  S
H98          O99   0.965       .  S
O99        Zr118   2.350   1_545  S
O99        Zr120   2.342   1_545  S
H100        O101   0.966       .  S
O101       Zr119   2.348   1_445  S
O101       Zr121   2.339   1_545  S
O102       Zr118   2.459       .  S
O102        C125   1.294       .  A
O103       Zr119   2.466       .  S
O103        C126   1.298       .  A
O104       Zr120   2.414       .  S
O104        C127   1.289       .  A
O105       Zr121   2.432       .  S
O105        C128   1.292       .  A
O106       Zr121   2.447       .  S
O106        C129   1.293       .  A
O107       Zr120   2.434   1_545  S
O107        C130   1.292       .  A
O108       Zr122   2.445       .  S
O108        C131   1.294       .  A
O109       Zr122   2.448   1_455  S
O109        C132   1.291       .  A
O110       Zr120   2.441       .  S
O110        C131   1.290       .  A
O111       Zr121   2.445       .  S
O111        C132   1.294       .  A
O112       Zr118   2.446       .  S
O112        C127   1.292       .  A
O113       Zr119   2.455   1_545  S
O113        C130   1.293       .  A
O114       Zr119   2.463   1_455  S
O114        C129   1.298       .  A
O115       Zr118   2.461   1_455  S
O115        C128   1.295       .  A
O116       Zr122   2.422       .  S
O116        C125   1.290       .  A
O117       Zr122   2.417       .  S
O117        C126   1.287       .  A
Zr118       O124   2.340       .  S
Zr118       O136   2.341   1_655  S
Zr119       O123   2.351   1_655  S
Zr119       O134   2.347       .  S
Zr120       O124   2.333       .  S
Zr120       O134   2.331       .  S
Zr121       O123   2.346       .  S
Zr121       O136   2.347       .  S
Zr122       O123   2.342   1_655  S
Zr122       O124   2.328       .  S
Zr122       O136   2.336   1_655  S
Zr122       O134   2.340       .  S
C125       C2330   1.502       .  S
C126       C2202   1.481       .  S
C127       C1905   1.487       .  S
C128       C1946   1.498       .  S
C129       C1969   1.500       .  S
C130       C2010   1.505       .  S
C131       C2074   1.502       .  S
C132       C2033   1.505       .  S
H133        O134   0.965       .  S
H135        O136   0.966       .  S
N137        C141   1.357       .  A
N137        C138   1.360       .  A
N137       C2138   1.447       .  S
C138        C139   1.381       .  A
C138       C2426   1.474       .  S
C139        C140   1.369       .  A
C139        H142   1.082       .  S
C140        C141   1.380       .  A
C140        H143   1.082       .  S
C141       C1882   1.470       .  S
N144        C148   1.359       .  A
N144        C145   1.362       .  A
N144       C2106   1.441       .  S
C145        C146   1.384       .  A
C145       C2394   1.490       .  S
C146        C147   1.370       .  A
C146        H149   1.082       .  S
C147        C148   1.382       .  A
C147        H150   1.082       .  S
C148       C1850   1.482       .  S
N151        C155   1.356       .  A
N151        C152   1.353       .  A
N151       C2065   1.446       .  S
C152        C153   1.381       .  A
C152       C1809   1.462       .  S
C153        C154   1.368       .  A
C153        H156   1.082       .  S
C154        C155   1.380       .  A
C154        H157   1.082       .  S
C155       C2458   1.463       .  S
N158        C162   1.359       .  A
N158        C159   1.362       .  A
N158       C2042   1.443       .  S
C159        C160   1.383       .  A
C159       C2353   1.485       .  S
C160        C161   1.370       .  A
C160        H163   1.082       .  S
C161        C162   1.382       .  A
C161        H164   1.082       .  S
C162       C1786   1.484       .  S
N165        C169   1.356       .  A
N165        C166   1.358       .  A
N165       C1754   1.443       .  S
C166        C167   1.381       .  A
C166       C2001   1.475       .  S
C167        C168   1.373       .  A
C167        H170   1.082       .  S
C168        C169   1.382       .  A
C168        H171   1.082       .  S
C169       C1713   1.476       .  S
O172       Zr208   2.443       .  S
O172        C183   1.291       .  A
O173       Zr207   2.459       .  S
O173        C184   1.295       .  A
O174       Zr180   2.428       .  S
O174        C185   1.287       .  A
O175       Zr180   2.439       .  S
O175        C186   1.288       .  A
O176       Zr210   2.459       .  S
O176        C186   1.296       .  A
O177       Zr209   2.464       .  S
O177        C185   1.298       .  A
O178       Zr180   2.424       .  S
O178        C184   1.290       .  A
O179       Zr180   2.411   1_545  S
O179        C183   1.288       .  A
Zr180       O181   2.329       .  S
Zr180       O182   2.334   1_565  S
Zr180       O190   2.342   1_565  S
Zr180       O188   2.335       .  S
O181       Zr207   2.348       .  S
O181       Zr210   2.334       .  S
O182       Zr208   2.342       .  S
O182       Zr209   2.334   1_545  S
C183       C1873   1.493       .  S
C184       C1777   1.481       .  S
C185       C1617   1.508       .  S
C186       C1681   1.513       .  S
H187        O188   0.966       .  S
O188       Zr207   2.340       .  S
O188       Zr209   2.338       .  S
H189        O190   0.966       .  S
O190       Zr208   2.351       .  S
O190       Zr210   2.339   1_545  S
O191       Zr207   2.452       .  S
O191        C214   1.293       .  A
O192       Zr208   2.454       .  S
O192        C215   1.296       .  A
O193       Zr209   2.413       .  S
O193        C216   1.289       .  A
O194       Zr210   2.412       .  S
O194        C217   1.283       .  A
O195       Zr210   2.415   1_545  S
O195        C218   1.289       .  A
O196       Zr209   2.415   1_545  S
O196        C219   1.287       .  A
O197       Zr211   2.462       .  S
O197        C220   1.297       .  A
O198       Zr211   2.447       .  S
O198        C221   1.291       .  A
O199       Zr209   2.455       .  S
O199        C220   1.293       .  A
O200       Zr210   2.442       .  S
O200        C221   1.294       .  A
O201       Zr207   2.466       .  S
O201        C216   1.296       .  A
O202       Zr208   2.449       .  S
O202        C219   1.295       .  A
O203       Zr208   2.457       .  S
O203        C218   1.294       .  A
O204       Zr207   2.460       .  S
O204        C217   1.298       .  A
O205       Zr211   2.400       .  S
O205        C214   1.287       .  A
O206       Zr211   2.425   1_545  S
O206        C215   1.287       .  A
Zr207       O213   2.352       .  S
Zr207       O225   2.348       .  S
Zr208       O212   2.331       .  S
Zr208       O223   2.341       .  S
Zr209       O213   2.340       .  S
Zr209       O223   2.340   1_565  S
Zr210       O212   2.335   1_565  S
Zr210       O225   2.343       .  S
Zr211       O212   2.328   1_565  S
Zr211       O213   2.342       .  S
Zr211       O225   2.344       .  S
Zr211       O223   2.329   1_565  S
C214       C1818   1.491       .  S
C215       C1841   1.487       .  S
C216       C1530   1.488       .  S
C217       C1594   1.501       .  S
C218       C1553   1.490       .  S
C219       C1489   1.482       .  S
C220       C1745   1.512       .  S
C221       C1658   1.509       .  S
H222        O223   0.966       .  S
H224        O225   0.966       .  S
N226        C230   1.359       .  A
N226        C227   1.359       .  A
N226       C1690   1.443       .  S
C227        C228   1.380       .  A
C227       C1457   1.480       .  S
C228        C229   1.374       .  A
C228        H231   1.082       .  S
C229        C230   1.383       .  A
C229        H232   1.082       .  S
C230       C1937   1.482       .  S
N233        C237   1.363       .  A
N233        C234   1.360       .  A
N233       C1649   1.449       .  S
C234        C235   1.378       .  A
C234       C1914   1.475       .  S
C235        C236   1.366       .  A
C235        H238   1.082       .  S
C236        C237   1.384       .  A
C236        H239   1.082       .  S
C237       C1425   1.482       .  S
N240        C244   1.362       .  A
N240        C241   1.359       .  A
N240       C1626   1.444       .  S
C241        C242   1.379       .  A
C241       C1402   1.479       .  S
C242        C243   1.372       .  A
C242        H245   1.082   1_565  S
C243        C244   1.384       .  A
C243        H246   1.082   1_565  S
C244       C1978   1.487       .  S
O247       Zr283   2.460   1_554  S
O247        C258   1.294       .  A
O248       Zr282   2.459   1_554  S
O248        C259   1.295       .  A
O249       Zr255   2.426   1_545  S
O249        C260   1.286       .  A
O250       Zr255   2.448       .  S
O250        C261   1.291       .  A
O251       Zr285   2.452   1_554  S
O251        C261   1.295       .  A
O252       Zr284   2.460   1_554  S
O252        C260   1.297       .  A
O253       Zr255   2.422       .  S
O253        C259   1.290       .  A
O254       Zr255   2.407       .  S
O254        C258   1.288       .  A
Zr255       O256   2.325       .  S
Zr255       O257   2.339   1_565  S
Zr255       O265   2.338       .  S
Zr255       O263   2.337   1_565  S
O256       Zr282   2.348   1_554  S
O256       Zr285   2.339   1_554  S
O257       Zr283   2.345   1_544  S
O257       Zr284   2.337   1_554  S
C258       C1722   1.501       .  S
C259       C1393   1.497       .  S
C260       C1361   1.508       .  S
C261       C1329   1.504       .  S
H262        O263   0.975       .  S
O263       Zr282   2.338   1_544  S
O263       Zr284   2.336   1_554  S
H264        O265   0.964       .  S
O265       Zr283   2.356   1_554  S
O265       Zr285   2.340   1_554  S
O266       Zr282   2.449       .  S
O266        C289   1.293       .  A
O267       Zr283   2.454       .  S
O267        C290   1.296       .  A
O268       Zr284   2.410       .  S
O268        C291   1.288       .  A
O269       Zr285   2.422       .  S
O269        C292   1.287       .  A
O270       Zr285   2.421       .  S
O270        C293   1.287       .  A
O271       Zr284   2.418       .  S
O271        C294   1.287       .  A
O272       Zr286   2.427   1_545  S
O272        C295   1.290       .  A
O273       Zr286   2.435       .  S
O273        C296   1.291       .  A
O274       Zr284   2.454       .  S
O274        C295   1.293       .  A
O275       Zr285   2.449       .  S
O275        C296   1.293       .  A
O276       Zr282   2.482   1_545  S
O276        C291   1.300       .  A
O277       Zr283   2.473   1_545  S
O277        C294   1.299       .  A
O278       Zr283   2.462       .  S
O278        C293   1.297       .  A
O279       Zr282   2.458       .  S
O279        C292   1.298       .  A
O280       Zr286   2.423       .  S
O280        C289   1.290       .  A
O281       Zr286   2.425       .  S
O281        C290   1.287       .  A
Zr282       O288   2.344   1_565  S
Zr282       O300   2.354       .  S
Zr283       O287   2.353       .  S
Zr283       O298   2.345   1_565  S
Zr284       O288   2.338       .  S
Zr284       O298   2.333       .  S
Zr285       O287   2.339       .  S
Zr285       O300   2.338       .  S
Zr286       O287   2.335       .  S
Zr286       O288   2.341   1_565  S
Zr286       O300   2.333       .  S
Zr286       O298   2.339   1_565  S
C289       C1466   1.491       .  S
C290       C1434   1.487   1_565  S
C291       C1233   1.497       .  S
C292       C1169   1.494       .  S
C293       C1201   1.485       .  S
C294       C1137   1.491       .  S
C295       C1265   1.497       .  S
C296       C1297   1.487       .  S
H297        O298   0.966       .  S
H299        O300   0.964       .  S
N301        C305   1.356       .  A
N301        C302   1.353       .  A
N301       C1370   1.445       .  S
C302        C303   1.381       .  A
C302       C1498   1.469       .  S
C303        C304   1.372       .  A
C303        H306   1.082       .  S
C304        C305   1.381       .  A
C304        H307   1.082       .  S
C305       C1105   1.470       .  S
N308        C312   1.362       .  A
N308        C309   1.359       .  A
N308       C1338   1.446       .  S
C309        C310   1.380       .  A
C309       C1073   1.478       .  S
C310        C311   1.369       .  A
C310        H313   1.082       .  S
C311        C312   1.384       .  A
C311        H314   1.082       .  S
C312       C1521   1.484       .  S
N315        C319   1.359       .  A
N315        C316   1.362       .  A
N315       C1306   1.450       .  S
C316        C317   1.382       .  A
C316       C1041   1.474       .  S
C317        C318   1.368       .  A
C317        H320   1.082       .  S
C318        C319   1.379       .  A
C318        H321   1.082       .  S
C319       C1585   1.472       .  S
N322        C326   1.361       .  A
N322        C323   1.362       .  A
N322       C1274   1.444       .  S
C323        C324   1.382       .  A
C323       C1562   1.480       .  S
C324        C325   1.370       .  A
C324        H327   1.082       .  S
C325        C326   1.380       .  A
C325        H328   1.082       .  S
C326       C1009   1.482       .  S
O329       Zr365   2.461   1_554  S
O329        C340   1.295       .  A
O330       Zr364   2.456       .  S
O330        C341   1.297       .  A
O331       Zr337   2.439       .  S
O331        C342   1.290       .  A
O332       Zr337   2.439   1_655  S
O332        C343   1.289       .  A
O333       Zr367   2.447       .  S
O333        C343   1.294       .  A
O334       Zr366   2.457   1_554  S
O334        C342   1.295       .  A
O335       Zr337   2.411       .  S
O335        C341   1.285       .  A
O336       Zr337   2.423       .  S
O336        C340   1.290       .  A
Zr337       O338   2.336   1_455  S
Zr337       O339   2.329       .  S
Zr337       O347   2.334   1_455  S
Zr337       O345   2.340       .  S
O338       Zr364   2.347   1_655  S
O338       Zr367   2.338       .  S
O339       Zr365   2.339   1_554  S
O339       Zr366   2.337   1_554  S
C340       C2705   1.496       .  S
C341       C2170   1.486       .  S
C342        C945   1.501       .  S
C343        C977   1.509       .  S
H344        O345   0.966       .  S
O345       Zr364   2.345       .  S
O345       Zr366   2.339   1_554  S
H346        O347   0.966       .  S
O347       Zr365   2.346   1_654  S
O347       Zr367   2.343       .  S
O348       Zr364   2.452   1_556  S
O348        C371   1.293       .  A
O349       Zr365   2.446       .  S
O349        C372   1.293       .  A
O350       Zr366   2.413   1_554  S
O350        C373   1.285       .  A
O351       Zr367   2.424       .  S
O351        C374   1.291       .  A
O352       Zr367   2.415   1_556  S
O352        C375   1.286       .  A
O353       Zr366   2.408       .  S
O353        C376   1.285       .  A
O354       Zr368   2.436       .  S
O354        C377   1.291       .  A
O355       Zr368   2.446   1_655  S
O355        C378   1.294       .  A
O356       Zr366   2.461       .  S
O356        C377   1.295       .  A
O357       Zr367   2.450   1_556  S
O357        C378   1.292       .  A
O358       Zr364   2.459       .  S
O358        C373   1.297       .  A
O359       Zr365   2.473       .  S
O359        C376   1.300       .  A
O360       Zr365   2.474   1_655  S
O360        C375   1.300       .  A
O361       Zr364   2.460   1_655  S
O361        C374   1.294       .  A
O362       Zr368   2.405       .  S
O362        C371   1.287       .  A
O363       Zr368   2.422   1_655  S
O363        C372   1.290   1_655  A
Zr364       O370   2.348   1_554  S
Zr364       O382   2.344   1_454  S
Zr365       O369   2.350   1_455  S
Zr365       O380   2.350       .  S
Zr366       O370   2.334       .  S
Zr366       O380   2.339       .  S
Zr367       O369   2.342   1_554  S
Zr367       O382   2.333   1_554  S
Zr368       O369   2.337   1_455  S
Zr368       O370   2.339       .  S
Zr368       O382   2.335   1_455  S
Zr368       O380   2.336       .  S
C371       C2298   1.487   1_455  S
C372       C2234   1.482       .  S
C373        C826   1.490       .  S
C374        C753   1.503   1_554  S
C375        C785   1.492       .  S
C376        C849   1.483       .  S
C377        C913   1.497       .  S
C378        C890   1.500       .  S
H379        O380   0.966       .  S
H381        O382   0.965       .  S
N383        C387   1.359       .  A
N383        C384   1.356       .  A
N383        C986   1.446       .  S
C384        C385   1.382       .  A
C384       C2513   1.476       .  S
C385        C386   1.372       .  A
C385        H388   1.082       .  S
C386        C387   1.381       .  A
C386        H389   1.082       .  S
C387        C721   1.476       .  S
N390        C394   1.357       .  A
N390        C391   1.360       .  A
N390        C954   1.446       .  S
C391        C392   1.380       .  A
C391        C698   1.477       .  S
C392        C393   1.371       .  A
C392        H395   1.082       .  S
C393        C394   1.382       .  A
C393        H396   1.082       .  S
C394       C2481   1.477       .  S
N397        C401   1.364       .  A
N397        C398   1.362       .  A
N397        C922   1.453       .  S
C398        C399   1.379       .  A
C398        C657   1.476       .  S
C399        C400   1.365       .  A
C399        H402   1.082       .  S
C400        C401   1.382       .  A
C400        H403   1.082       .  S
C401       C2554   1.475       .  S
N404        C408   1.354       .  A
N404        C405   1.356       .  A
N404        C881   1.446       .  S
C405        C406   1.383       .  A
C405       C2586   1.467       .  S
C406        C407   1.366       .  A
C406        H409   1.082       .  S
C407        C408   1.380       .  A
C407        H410   1.082       .  S
C408        C625   1.465       .  S
N411        C415   1.361       .  A
N411        C412   1.362       .  A
N411        C593   1.446       .  S
C412        C413   1.383       .  A
C412        C858   1.481       .  S
C413        C414   1.369       .  A
C413        H416   1.082       .  S
C414        C415   1.379       .  A
C414        H417   1.082       .  S
C415       C1242   1.480       .  S
O418       Zr454   2.459       .  S
O418        C429   1.295       .  A
O419       Zr453   2.472       .  S
O419        C430   1.297       .  A
O420       Zr426   2.464       .  S
O420        C431   1.295       .  A
O421       Zr426   2.450       .  S
O421        C432   1.295       .  A
O422       Zr456   2.456       .  S
O422        C432   1.293       .  A
O423       Zr455   2.424       .  S
O423        C431   1.290       .  A
O424       Zr426   2.422       .  S
O424        C430   1.290       .  A
O425       Zr426   2.402   1_554  S
O425        C429   1.287       .  A
Zr426       O427   2.336       .  S
Zr426       O428   2.339   1_556  S
Zr426       O436   2.346   1_556  S
Zr426       O434   2.336       .  S
O427       Zr453   2.339       .  S
O427       Zr456   2.341       .  S
O428       Zr454   2.348       .  S
O428       Zr455   2.341   1_554  S
C429       C1114   1.489       .  S
C430       C1018   1.513       .  S
C431        C602   1.502       .  S
C432        C497   1.506       .  S
H433        O434   0.966       .  S
O434       Zr453   2.348       .  S
O434       Zr455   2.349       .  S
H435        O436   0.971       .  S
O436       Zr454   2.334       .  S
O436       Zr456   2.329   1_554  S
O437       Zr453   2.456       .  S
O437        C460   1.297       .  A
O438       Zr454   2.445       .  S
O438        C461   1.294       .  A
O439       Zr455   2.425       .  S
O439        C462   1.291       .  A
O440       Zr456   2.394       .  S
O440        C463   1.280       .  A
O441       Zr456   2.416   1_554  S
O441        C464   1.289       .  A
O442       Zr455   2.427   1_554  S
O442        C465   1.291       .  A
O443       Zr457   2.457       .  S
O443        C466   1.295       .  A
O444       Zr457   2.437       .  S
O444        C467   1.290       .  A
O445       Zr455   2.444       .  S
O445        C466   1.291       .  A
O446       Zr456   2.457       .  S
O446        C467   1.296       .  A
O447       Zr453   2.449       .  S
O447        C462   1.293       .  A
O448       Zr454   2.443       .  S
O448        C465   1.291       .  A
O449       Zr454   2.454       .  S
O449        C464   1.293       .  A
O450       Zr453   2.469       .  S
O450        C463   1.299       .  A
O451       Zr457   2.397       .  S
O451        C460   1.283       .  A
O452       Zr457   2.419   1_554  S
O452        C461   1.287       .  A
Zr453       O459   2.355       .  S
Zr453       O471   2.347       .  S
Zr454       O458   2.339       .  S
Zr454       O469   2.346       .  S
Zr455       O459   2.330       .  S
Zr455       O469   2.333   1_556  S
Zr456       O458   2.328   1_556  S
Zr456       O471   2.335       .  S
Zr457       O458   2.332   1_556  S
Zr457       O459   2.334       .  S
Zr457       O471   2.344       .  S
Zr457       O469   2.329   1_556  S
C460       C1050   1.474       .  S
C461       C1082   1.475       .  S
C462        C666   1.495       .  S
C463        C634   1.490       .  S
C464        C730   1.498       .  S
C465        C689   1.497       .  S
C466        C538   1.502       .  S
C467        C561   1.492       .  S
H468        O469   0.966       .  S
H470        O471   0.965       .  S
N472        C476   1.357       .  A
N472        C473   1.363       .  A
N472        C570   1.446       .  S
C473        C474   1.383       .  A
C473       C1210   1.484       .  S
C474        C475   1.372       .  A
C474        H477   1.082       .  S
C475        C476   1.379       .  A
C475        H478   1.082       .  S
C476        C762   1.476       .  S
N479        C483   1.358       .  A
N479        C480   1.355       .  A
N479        C529   1.447       .  S
C480        C481   1.382       .  A
C480       C1178   1.471       .  S
C481        C482   1.371       .  A
C481        H484   1.082       .  S
C482        C483   1.380       .  A
C482        H485   1.082       .  S
C483        C817   1.471       .  S
N486        C490   1.365       .  A
N486        C487   1.363       .  A
N486        C506   1.451       .  S
C487        C488   1.381       .  A
C487        C794   1.482       .  S
C488        C489   1.366       .  A
C488        H491   1.082       .  S
C489        C490   1.383       .  A
C489        H492   1.082       .  S
C490       C1146   1.484   1_556  S
C493        C494   1.400   1_554  A
C493        C498   1.411       .  A
C493        H503   1.083       .  S
C494        C495   1.414       .  A
C494        C499   1.493       .  S
C495        C496   1.412       .  A
C495        C500   1.520       .  S
C496        C497   1.413       .  A
C496        H501   1.082       .  S
C497        C498   1.429   1_556  A
C498        C502   1.521       .  S
C499        C504   1.417       .  A
C499        C508   1.403   1_556  A
C500        F516   1.383       .  S
C500        F517   1.381       .  S
C500        F518   1.384       .  S
C502        F513   1.381       .  S
C502        F514   1.385       .  S
C502        F515   1.384       .  S
C504        C505   1.411       .  A
C504        C509   1.519       .  S
C505        C506   1.406       .  A
C505        H510   1.082       .  S
C506        C507   1.420   1_556  A
C507        C508   1.410       .  A
C507        C511   1.516       .  S
C508        H512   1.084       .  S
C509        F522   1.385       .  S
C509        F523   1.383       .  S
C509        F524   1.381       .  S
C511        F519   1.385       .  S
C511        F520   1.382       .  S
C511        F521   1.381       .  S
C525        C526   1.399       .  A
C525        C530   1.405       .  A
C525        H535   1.085       .  S
C526        C527   1.417   1_554  A
C526        C531   1.494       .  S
C527        C528   1.414       .  A
C527        C532   1.518       .  S
C528        C529   1.406   1_556  A
C528        H533   1.081       .  S
C529        C530   1.422       .  A
C530        C534   1.517       .  S
C531        C536   1.416       .  A
C531        C540   1.402   1_554  A
C532        F548   1.382       .  S
C532        F549   1.382       .  S
C532        F550   1.384       .  S
C534        F545   1.383       .  S
C534        F546   1.383       .  S
C534        F547   1.380       .  S
C536        C537   1.411       .  A
C536        C541   1.522       .  S
C537        C538   1.409   1_554  A
C537        H542   1.083       .  S
C538        C539   1.428       .  A
C539        C540   1.413       .  A
C539        C543   1.522       .  S
C540        H544   1.083       .  S
C541        F554   1.384       .  S
C541        F555   1.382       .  S
C541        F556   1.382       .  S
C543        F551   1.385       .  S
C543        F552   1.383       .  S
C543        F553   1.383       .  S
C557        C558   1.400       .  A
C557        C562   1.408       .  A
C557        H567   1.083       .  S
C558        C559   1.415   1_556  A
C558        C563   1.490       .  S
C559        C560   1.410       .  A
C559        C564   1.519       .  S
C560        C561   1.408   1_554  A
C560        H565   1.083       .  S
C561        C562   1.425       .  A
C562        C566   1.522       .  S
C563        C568   1.415       .  A
C563        C572   1.406   1_556  A
C564        F580   1.382       .  S
C564        F581   1.383       .  S
C564        F582   1.385       .  S
C566        F577   1.383       .  S
C566        F578   1.386       .  S
C566        F579   1.382       .  S
C568        C569   1.404       .  A
C568        C573   1.522       .  S
C569        C570   1.404       .  A
C569        H574   1.077       .  S
C570        C571   1.417       .  A
C571        C572   1.411   1_556  A
C571        C575   1.513   1_556  S
C572        H576   1.084       .  S
C573        F586   1.385       .  S
C573        F587   1.382       .  S
C573        F588   1.382       .  S
C575        F583   1.383       .  S
C575        F584   1.380       .  S
C575        F585   1.384       .  S
C589        C590   1.402   1_554  A
C589        C594   1.409       .  A
C589        H599   1.085       .  S
C590        C591   1.413       .  A
C590        C595   1.485       .  S
C591        C592   1.404       .  A
C591        C596   1.521       .  S
C592        C593   1.405       .  A
C592        H597   1.080       .  S
C593        C594   1.422   1_556  A
C594        C598   1.515       .  S
C595        C600   1.411       .  A
C595        C604   1.399   1_556  A
C596        F612   1.382       .  S
C596        F613   1.381       .  S
C596        F614   1.384       .  S
C598        F609   1.383       .  S
C598        F610   1.384       .  S
C598        F611   1.376       .  S
C600        C601   1.409       .  A
C600        C605   1.521       .  S
C601        C602   1.415       .  A
C601        H606   1.082       .  S
C602        C603   1.426   1_556  A
C603        C604   1.408       .  A
C603        C607   1.518       .  S
C604        H608   1.083       .  S
C605        F618   1.384       .  S
C605        F619   1.382   1_556  S
C605        F620   1.381       .  S
C607        F615   1.385       .  S
C607        F616   1.382       .  S
C607        F617   1.383   1_554  S
C621        C622   1.397       .  A
C621        C626   1.396       .  A
C621        H631   1.085       .  S
C622        C623   1.416       .  A
C622        C627   1.471       .  S
C623        C624   1.406       .  A
C623        C628   1.519       .  S
C624        C625   1.401       .  A
C624        H629   1.083       .  S
C625        C626   1.414       .  A
C626        C630   1.517       .  S
C627        C632   1.413       .  A
C627        C636   1.389       .  A
C628        F644   1.383       .  S
C628        F645   1.382       .  S
C628        F646   1.385       .  S
C630        F641   1.382       .  S
C630        F642   1.384       .  S
C630        F643   1.383       .  S
C632        C633   1.407       .  A
C632        C637   1.519       .  S
C633        C634   1.407       .  A
C633        H638   1.083       .  S
C634        C635   1.434       .  A
C635        C636   1.399       .  A
C635        C639   1.523       .  S
C636        H640   1.084       .  S
C637        F650   1.384       .  S
C637        F651   1.383       .  S
C637        F652   1.382       .  S
C639        F647   1.385       .  S
C639        F648   1.382       .  S
C639        F649   1.384       .  S
C653        C654   1.400       .  A
C653        C658   1.404       .  A
C653        H663   1.083       .  S
C654        C655   1.416       .  A
C654        C659   1.482       .  S
C655        C656   1.406       .  A
C655        C660   1.519       .  S
C656        C657   1.402       .  A
C656        H661   1.083       .  S
C657        C658   1.416       .  A
C658        C662   1.516       .  S
C659        C664   1.410       .  A
C659        C668   1.401       .  A
C660        F676   1.382       .  S
C660        F677   1.383       .  S
C660        F678   1.384       .  S
C662        F673   1.380       .  S
C662        F674   1.385       .  S
C662        F675   1.382       .  S
C664        C665   1.403       .  A
C664        C669   1.520       .  S
C665        C666   1.412       .  A
C665        H670   1.082       .  S
C666        C667   1.426       .  A
C667        C668   1.408       .  A
C667        C671   1.521       .  S
C668        H672   1.083       .  S
C669        F682   1.384       .  S
C669        F683   1.382       .  S
C669        F684   1.383       .  S
C671        F679   1.385       .  S
C671        F680   1.382       .  S
C671        F681   1.383       .  S
C685        C686   1.400       .  A
C685        C690   1.407       .  A
C685        H695   1.083       .  S
C686        C687   1.410       .  A
C686        C691   1.482       .  S
C687        C688   1.404       .  A
C687        C692   1.520       .  S
C688        C689   1.413       .  A
C688        H693   1.082       .  S
C689        C690   1.427       .  A
C690        C694   1.522       .  S
C691        C696   1.417       .  A
C691        C700   1.401       .  A
C692        F708   1.382       .  S
C692        F709   1.383       .  S
C692        F710   1.385       .  S
C694        F705   1.383       .  S
C694        F706   1.384       .  S
C694        F707   1.384       .  S
C696        C697   1.405       .  A
C696        C701   1.521       .  S
C697        C698   1.401       .  A
C697        H702   1.081       .  S
C698        C699   1.417       .  A
C699        C700   1.406       .  A
C699        C703   1.518       .  S
C700        H704   1.083       .  S
C701        F714   1.385       .  S
C701        F715   1.382       .  S
C701        F716   1.382       .  S
C703        F711   1.385       .  S
C703        F712   1.383       .  S
C703        F713   1.380       .  S
C717        C718   1.398       .  A
C717        C722   1.402       .  A
C717        H727   1.083       .  S
C718        C719   1.415       .  A
C718        C723   1.477       .  S
C719        C720   1.407       .  A
C719        C724   1.521       .  S
C720        C721   1.404       .  A
C720        H725   1.081       .  S
C721        C722   1.417       .  A
C722        C726   1.518       .  S
C723        C728   1.409       .  A
C723        C732   1.399       .  A
C724        F740   1.382       .  S
C724        F741   1.382       .  S
C724        F742   1.384       .  S
C726        F737   1.378       .  S
C726        F738   1.385       .  S
C726        F739   1.382       .  S
C728        C729   1.404       .  A
C728        C733   1.522       .  S
C729        C730   1.415       .  A
C729        H734   1.081       .  S
C730        C731   1.427       .  A
C731        C732   1.406       .  A
C731        C735   1.520       .  S
C732        H736   1.083       .  S
C733        F746   1.384       .  S
C733        F747   1.382       .  S
C733        F748   1.382       .  S
C735        F743   1.385       .  S
C735        F744   1.381       .  S
C735        F745   1.382       .  S
C749        C750   1.399       .  A
C749        C754   1.408       .  A
C749        H759   1.083       .  S
C750        C751   1.410       .  A
C750        C755   1.482       .  S
C751        C752   1.406   1_556  A
C751        C756   1.521   1_556  S
C752        C753   1.415   1_554  A
C752        H757   1.082       .  S
C753        C754   1.428       .  A
C754        C758   1.518       .  S
C755        C760   1.414   1_556  A
C755        C764   1.401       .  A
C756        F772   1.383   1_554  S
C756        F773   1.381       .  S
C756        F774   1.385       .  S
C758        F769   1.383   1_556  S
C758        F770   1.385       .  S
C758        F771   1.382       .  S
C760        C761   1.407   1_554  A
C760        C765   1.520       .  S
C761        C762   1.405       .  A
C761        H766   1.083   1_556  S
C762        C763   1.418       .  A
C763        C764   1.404       .  A
C763        C767   1.519       .  S
C764        H768   1.085       .  S
C765        F778   1.384       .  S
C765        F779   1.383       .  S
C765        F780   1.381       .  S
C767        F775   1.384       .  S
C767        F776   1.383       .  S
C767        F777   1.380       .  S
C781        C782   1.396       .  A
C781        C786   1.405       .  A
C781        H791   1.083       .  S
C782        C783   1.417   1_556  A
C782        C787   1.484       .  S
C783        C784   1.410       .  A
C783        C788   1.520       .  S
C784        C785   1.406   1_554  A
C784        H789   1.083       .  S
C785        C786   1.429       .  A
C786        C790   1.522       .  S
C787        C792   1.417   1_556  A
C787        C796   1.399       .  A
C788        F804   1.382       .  S
C788        F805   1.381       .  S
C788        F806   1.385       .  S
C790        F801   1.382       .  S
C790        F802   1.385       .  S
C790        F803   1.383       .  S
C792        C793   1.411       .  A
C792        C797   1.518       .  S
C793        C794   1.404   1_554  A
C793        H798   1.083       .  S
C794        C795   1.419       .  A
C795        C796   1.400       .  A
C795        C799   1.518       .  S
C796        H800   1.085       .  S
C797        F810   1.385       .  S
C797        F811   1.382       .  S
C797        F812   1.381       .  S
C799        F807   1.384       .  S
C799        F808   1.383       .  S
C799        F809   1.383       .  S
C813        C814   1.401   1_556  A
C813        C818   1.404       .  A
C813        H823   1.083       .  S
C814        C815   1.414       .  A
C814        C819   1.476       .  S
C815        C816   1.403       .  A
C815        C820   1.520       .  S
C816        C817   1.399       .  A
C816        H821   1.078       .  S
C817        C818   1.416   1_554  A
C818        C822   1.519       .  S
C819        C824   1.414       .  A
C819        C828   1.396   1_554  A
C820        F836   1.382       .  S
C820        F837   1.381       .  S
C820        F838   1.385       .  S
C822        F833   1.385       .  S
C822        F834   1.381       .  S
C822        F835   1.383       .  S
C824        C825   1.406       .  A
C824        C829   1.521       .  S
C825        C826   1.407       .  A
C825        H830   1.082       .  S
C826        C827   1.429   1_554  A
C827        C828   1.405       .  A
C827        C831   1.522       .  S
C828        H832   1.084       .  S
C829        F842   1.384       .  S
C829        F843   1.383       .  S
C829        F844   1.381       .  S
C831        F839   1.385       .  S
C831        F840   1.384       .  S
C831        F841   1.383       .  S
C845        C846   1.397   1_554  A
C845        C850   1.405       .  A
C845        H855   1.083       .  S
C846        C847   1.417       .  A
C846        C851   1.482       .  S
C847        C848   1.407       .  A
C847        C852   1.519       .  S
C848        C849   1.403       .  A
C848        H853   1.083       .  S
C849        C850   1.426   1_556  A
C850        C854   1.521       .  S
C851        C856   1.417       .  A
C851        C860   1.397   1_556  A
C852        F868   1.382       .  S
C852        F869   1.382       .  S
C852        F870   1.385       .  S
C854        F865   1.383       .  S
C854        F866   1.385       .  S
C854        F867   1.382       .  S
C856        C857   1.409       .  A
C856        C861   1.518       .  S
C857        C858   1.404       .  A
C857        H862   1.082       .  S
C858        C859   1.423   1_556  A
C859        C860   1.399       .  A
C859        C863   1.522       .  S
C860        H864   1.085       .  S
C861        F874   1.384       .  S
C861        F875   1.382       .  S
C861        F876   1.382       .  S
C863        F871   1.384       .  S
C863        F872   1.381       .  S
C863        F873   1.383       .  S
C877        C878   1.401       .  A
C877        C882   1.408       .  A
C877        H887   1.084       .  S
C878        C879   1.415       .  A
C878        C883   1.487       .  S
C879        C880   1.407       .  A
C879        C884   1.519       .  S
C880        C881   1.403       .  A
C880        H885   1.080       .  S
C881        C882   1.419       .  A
C882        C886   1.514       .  S
C883        C888   1.413       .  A
C883        C892   1.400       .  A
C884        F900   1.383       .  S
C884        F901   1.381       .  S
C884        F902   1.385       .  S
C886        F897   1.380       .  S
C886        F898   1.385       .  S
C886        F899   1.382       .  S
C888        C889   1.408       .  A
C888        C893   1.520       .  S
C889        C890   1.411       .  A
C889        H894   1.082       .  S
C890        C891   1.427       .  A
C891        C892   1.410       .  A
C891        C895   1.520       .  S
C892        H896   1.083       .  S
C893        F906   1.384       .  S
C893        F907   1.383       .  S
C893        F908   1.381       .  S
C895        F903   1.385       .  S
C895        F904   1.383       .  S
C895        F905   1.381       .  S
C909        C910   1.403       .  A
C909        C914   1.410       .  A
C909        H919   1.083       .  S
C910        C911   1.416       .  A
C910        C915   1.493       .  S
C911        C912   1.413       .  A
C911        C916   1.521       .  S
C912        C913   1.411       .  A
C912        H917   1.083       .  S
C913        C914   1.422       .  A
C914        C918   1.520       .  S
C915        C920   1.417       .  A
C915        C924   1.403       .  A
C916        F932   1.382       .  S
C916        F933   1.380       .  S
C916        F934   1.385       .  S
C918        F929   1.382       .  S
C918        F930   1.385       .  S
C918        F931   1.384       .  S
C920        C921   1.410       .  A
C920        C925   1.521       .  S
C921        C922   1.407       .  A
C921        H926   1.081       .  S
C922        C923   1.423       .  A
C923        C924   1.410       .  A
C923        C927   1.514       .  S
C924        H928   1.085       .  S
C925        F938   1.385       .  S
C925        F939   1.382       .  S
C925        F940   1.380       .  S
C927        F935   1.384       .  S
C927        F936   1.375       .  S
C927        F937   1.382       .  S
C941        C942   1.398       .  A
C941        C946   1.408       .  A
C941        H951   1.083       .  S
C942        C943   1.414       .  A
C942        C947   1.489       .  S
C943        C944   1.412       .  A
C943        C948   1.519       .  S
C944        C945   1.411       .  A
C944        H949   1.083       .  S
C945        C946   1.428       .  A
C946        C950   1.522       .  S
C947        C952   1.417       .  A
C947        C956   1.400       .  A
C948        F964   1.383       .  S
C948        F965   1.382       .  S
C948        F966   1.384       .  S
C950        F961   1.382       .  S
C950        F962   1.385       .  S
C950        F963   1.382       .  S
C952        C953   1.411       .  A
C952        C957   1.518       .  S
C953        C954   1.405       .  A
C953        H958   1.081       .  S
C954        C955   1.421       .  A
C955        C956   1.405       .  A
C955        C959   1.516       .  S
C956        H960   1.085       .  S
C957        F970   1.385       .  S
C957        F971   1.383       .  S
C957        F972   1.381       .  S
C959        F967   1.384       .  S
C959        F968   1.380       .  S
C959        F969   1.382       .  S
C973        C974   1.398       .  A
C973        C978   1.409       .  A
C973        H983   1.083       .  S
C974        C975   1.413       .  A
C974        C979   1.489       .  S
C975        C976   1.409       .  A
C975        C980   1.520       .  S
C976        C977   1.414       .  A
C976        H981   1.082       .  S
C977        C978   1.433       .  A
C978        C982   1.522       .  S
C979        C984   1.417       .  A
C979        C988   1.399       .  A
C980        F996   1.382       .  S
C980        F997   1.383       .  S
C980        F998   1.384       .  S
C982        F993   1.383       .  S
C982        F994   1.385       .  S
C982        F995   1.383       .  S
C984        C985   1.411       .  A
C984        C989   1.519       .  S
C985        C986   1.405       .  A
C985        H990   1.079       .  S
C986        C987   1.421       .  A
C987        C988   1.403       .  A
C987        C991   1.516       .  S
C988        H992   1.085       .  S
C989       F1002   1.385       .  S
C989       F1003   1.382       .  S
C989       F1004   1.382       .  S
C991        F999   1.384       .  S
C991       F1000   1.380       .  S
C991       F1001   1.383       .  S
C1005      C1006   1.403       .  A
C1005      C1010   1.409       .  A
C1005      H1015   1.083       .  S
C1006      C1007   1.418       .  A
C1006      C1011   1.490       .  S
C1007      C1008   1.407       .  A
C1007      C1012   1.519       .  S
C1008      C1009   1.402       .  A
C1008      H1013   1.083       .  S
C1009      C1010   1.415       .  A
C1010      C1014   1.515       .  S
C1011      C1016   1.409       .  A
C1011      C1020   1.402       .  A
C1012      F1028   1.382       .  S
C1012      F1029   1.382       .  S
C1012      F1030   1.385       .  S
C1014      F1025   1.380       .  S
C1014      F1026   1.384       .  S
C1014      F1027   1.383       .  S
C1016      C1017   1.408       .  A
C1016      C1021   1.520       .  S
C1017      C1018   1.418       .  A
C1017      H1022   1.081       .  S
C1018      C1019   1.429       .  A
C1019      C1020   1.413       .  A
C1019      C1023   1.520       .  S
C1020      H1024   1.083       .  S
C1021      F1034   1.384       .  S
C1021      F1035   1.383       .  S
C1021      F1036   1.382       .  S
C1023      F1031   1.385       .  S
C1023      F1032   1.384       .  S
C1023      F1033   1.382       .  S
C1037      C1038   1.401       .  A
C1037      C1042   1.405       .  A
C1037      H1047   1.083       .  S
C1038      C1039   1.414       .  A
C1038      C1043   1.477       .  S
C1039      C1040   1.400       .  A
C1039      C1044   1.522       .  S
C1040      C1041   1.404       .  A
C1040      H1045   1.082       .  S
C1041      C1042   1.415       .  A
C1042      C1046   1.517       .  S
C1043      C1048   1.417       .  A
C1043      C1052   1.397       .  A
C1044      F1060   1.382       .  S
C1044      F1061   1.383       .  S
C1044      F1062   1.385       .  S
C1046      F1057   1.385       .  S
C1046      F1058   1.378       .  S
C1046      F1059   1.383       .  S
C1048      C1049   1.403       .  A
C1048      C1053   1.520       .  S
C1049      C1050   1.401       .  A
C1049      H1054   1.083       .  S
C1050      C1051   1.424       .  A
C1051      C1052   1.401       .  A
C1051      C1055   1.523       .  S
C1052      H1056   1.083       .  S
C1053      F1066   1.384       .  S
C1053      F1067   1.382       .  S
C1053      F1068   1.383       .  S
C1055      F1063   1.383       .  S
C1055      F1064   1.384       .  S
C1055      F1065   1.385       .  S
C1069      C1070   1.402       .  A
C1069      C1074   1.406       .  A
C1069      H1079   1.083       .  S
C1070      C1071   1.413       .  A
C1070      C1075   1.481       .  S
C1071      C1072   1.404       .  A
C1071      C1076   1.519       .  S
C1072      C1073   1.404       .  A
C1072      H1077   1.083       .  S
C1073      C1074   1.416       .  A
C1074      C1078   1.515       .  S
C1075      C1080   1.418       .  A
C1075      C1084   1.400       .  A
C1076      F1092   1.382       .  S
C1076      F1093   1.383       .  S
C1076      F1094   1.384       .  S
C1078      F1089   1.385       .  S
C1078      F1090   1.379       .  S
C1078      F1091   1.382       .  S
C1080      C1081   1.404       .  A
C1080      C1085   1.520       .  S
C1081      C1082   1.401       .  A
C1081      H1086   1.083       .  S
C1082      C1083   1.420       .  A
C1083      C1084   1.405       .  A
C1083      C1087   1.520       .  S
C1084      H1088   1.083       .  S
C1085      F1098   1.385       .  S
C1085      F1099   1.382       .  S
C1085      F1100   1.383       .  S
C1087      F1095   1.382       .  S
C1087      F1096   1.384       .  S
C1087      F1097   1.385       .  S
C1101      C1102   1.398       .  A
C1101      C1106   1.398       .  A
C1101      H1111   1.084       .  S
C1102      C1103   1.416       .  A
C1102      C1107   1.473       .  S
C1103      C1104   1.406       .  A
C1103      C1108   1.521       .  S
C1104      C1105   1.402       .  A
C1104      H1109   1.081       .  S
C1105      C1106   1.415       .  A
C1106      C1110   1.519       .  S
C1107      C1112   1.408       .  A
C1107      C1116   1.400       .  A
C1108      F1124   1.382       .  S
C1108      F1125   1.381       .  S
C1108      F1126   1.384       .  S
C1110      F1121   1.384       .  S
C1110      F1122   1.382       .  S
C1110      F1123   1.377       .  S
C1112      C1113   1.400       .  A
C1112      C1117   1.521       .  S
C1113      C1114   1.412       .  A
C1113      H1118   1.080       .  S
C1114      C1115   1.422       .  A
C1115      C1116   1.404       .  A
C1115      C1119   1.518       .  S
C1116      H1120   1.083       .  S
C1117      F1130   1.384       .  S
C1117      F1131   1.382       .  S
C1117      F1132   1.382       .  S
C1119      F1127   1.382       .  S
C1119      F1128   1.384       .  S
C1119      F1129   1.385       .  S
C1133      C1134   1.397   1_554  A
C1133      C1138   1.406       .  A
C1133      H1143   1.083       .  S
C1134      C1135   1.418       .  A
C1134      C1139   1.486       .  S
C1135      C1136   1.412       .  A
C1135      C1140   1.520       .  S
C1136      C1137   1.406       .  A
C1136      H1141   1.083       .  S
C1137      C1138   1.426   1_556  A
C1138      C1142   1.521       .  S
C1139      C1144   1.417       .  A
C1139      C1148   1.397   1_556  A
C1140      F1156   1.382       .  S
C1140      F1157   1.382       .  S
C1140      F1158   1.385       .  S
C1142      F1153   1.383       .  S
C1142      F1154   1.384       .  S
C1142      F1155   1.383       .  S
C1144      C1145   1.412       .  A
C1144      C1149   1.517       .  S
C1145      C1146   1.405   1_556  A
C1145      H1150   1.082       .  S
C1146      C1147   1.423       .  A
C1147      C1148   1.400       .  A
C1147      C1151   1.520       .  S
C1148      H1152   1.085       .  S
C1149      F1162   1.385       .  S
C1149      F1163   1.382       .  S
C1149      F1164   1.381       .  S
C1151      F1159   1.384       .  S
C1151      F1160   1.381       .  S
C1151      F1161   1.383       .  S
C1165      C1166   1.395   1_556  A
C1165      C1170   1.405       .  A
C1165      H1175   1.083       .  S
C1166      C1167   1.414       .  A
C1166      C1171   1.479       .  S
C1167      C1168   1.406       .  A
C1167      C1172   1.521       .  S
C1168      C1169   1.409   1_554  A
C1168      H1173   1.082       .  S
C1169      C1170   1.431       .  A
C1170      C1174   1.523       .  S
C1171      C1176   1.415   1_554  A
C1171      C1180   1.402       .  A
C1172      F1188   1.382       .  S
C1172      F1189   1.382       .  S
C1172      F1190   1.385       .  S
C1174      F1185   1.383       .  S
C1174      F1186   1.385       .  S
C1174      F1187   1.383       .  S
C1176      C1177   1.405       .  A
C1176      C1181   1.519       .  S
C1177      C1178   1.402   1_556  A
C1177      H1182   1.083       .  S
C1178      C1179   1.412       .  A
C1179      C1180   1.404       .  A
C1179      C1183   1.516       .  S
C1180      H1184   1.083       .  S
C1181      F1194   1.385       .  S
C1181      F1195   1.382       .  S
C1181      F1196   1.382       .  S
C1183      F1191   1.381       .  S
C1183      F1192   1.383       .  S
C1183      F1193   1.384       .  S
C1197      C1198   1.399       .  A
C1197      C1202   1.406   1_556  A
C1197      H1207   1.083   1_556  S
C1198      C1199   1.417       .  A
C1198      C1203   1.485       .  S
C1199      C1200   1.409       .  A
C1199      C1204   1.520       .  S
C1200      C1201   1.405       .  A
C1200      H1205   1.083       .  S
C1201      C1202   1.424   1_556  A
C1202      C1206   1.522       .  S
C1203      C1208   1.414       .  A
C1203      C1212   1.404       .  A
C1204      F1220   1.382       .  S
C1204      F1221   1.382       .  S
C1204      F1222   1.384       .  S
C1206      F1217   1.384       .  S
C1206      F1218   1.385       .  S
C1206      F1219   1.383       .  S
C1208      C1209   1.405       .  A
C1208      C1213   1.521   1_556  S
C1209      C1210   1.406       .  A
C1209      H1214   1.083       .  S
C1210      C1211   1.416       .  A
C1211      C1212   1.410       .  A
C1211      C1215   1.516       .  S
C1212      H1216   1.083       .  S
C1213      F1226   1.384       .  S
C1213      F1227   1.382       .  S
C1213      F1228   1.382       .  S
C1215      F1223   1.379       .  S
C1215      F1224   1.383       .  S
C1215      F1225   1.385       .  S
C1229      C1230   1.404       .  A
C1229      C1234   1.412       .  A
C1229      H1239   1.083       .  S
C1230      C1231   1.412   1_556  A
C1230      C1235   1.486       .  S
C1231      C1232   1.407       .  A
C1231      C1236   1.522       .  S
C1232      C1233   1.414   1_554  A
C1232      H1237   1.083       .  S
C1233      C1234   1.421       .  A
C1234      C1238   1.518       .  S
C1235      C1240   1.418       .  A
C1235      C1244   1.400   1_556  A
C1236      F1252   1.382       .  S
C1236      F1253   1.382       .  S
C1236      F1254   1.384       .  S
C1238      F1249   1.383       .  S
C1238      F1250   1.385       .  S
C1238      F1251   1.383       .  S
C1240      C1241   1.409       .  A
C1240      C1245   1.519       .  S
C1241      C1242   1.403       .  A
C1241      H1246   1.082       .  S
C1242      C1243   1.416   1_556  A
C1243      C1244   1.404       .  A
C1243      C1247   1.516       .  S
C1244      H1248   1.083       .  S
C1245      F1258   1.385       .  S
C1245      F1259   1.381       .  S
C1245      F1260   1.382       .  S
C1247      F1255   1.384       .  S
C1247      F1256   1.382       .  S
C1247      F1257   1.379       .  S
C1261      C1262   1.397       .  A
C1261      C1266   1.405       .  A
C1261      H1271   1.083       .  S
C1262      C1263   1.411       .  A
C1262      C1267   1.483       .  S
C1263      C1264   1.410       .  A
C1263      C1268   1.519       .  S
C1264      C1265   1.414       .  A
C1264      H1269   1.083       .  S
C1265      C1266   1.426       .  A
C1266      C1270   1.520       .  S
C1267      C1272   1.415       .  A
C1267      C1276   1.402       .  A
C1268      F1284   1.383       .  S
C1268      F1285   1.381       .  S
C1268      F1286   1.383       .  S
C1270      F1281   1.383       .  S
C1270      F1282   1.385       .  S
C1270      F1283   1.383       .  S
C1272      C1273   1.404       .  A
C1272      C1277   1.520       .  S
C1273      C1274   1.404       .  A
C1273      H1278   1.081       .  S
C1274      C1275   1.421       .  A
C1275      C1276   1.407       .  A
C1275      C1279   1.517       .  S
C1276      H1280   1.085       .  S
C1277      F1290   1.384       .  S
C1277      F1291   1.382       .  S
C1277      F1292   1.382       .  S
C1279      F1287   1.384       .  S
C1279      F1288   1.380       .  S
C1279      F1289   1.383       .  S
C1293      C1294   1.404       .  A
C1293      C1298   1.410       .  A
C1293      H1303   1.083       .  S
C1294      C1295   1.418       .  A
C1294      C1299   1.493       .  S
C1295      C1296   1.409       .  A
C1295      C1300   1.520       .  S
C1296      C1297   1.405       .  A
C1296      H1301   1.083       .  S
C1297      C1298   1.419       .  A
C1298      C1302   1.520       .  S
C1299      C1304   1.416       .  A
C1299      C1308   1.403       .  A
C1300      F1316   1.381       .  S
C1300      F1317   1.382       .  S
C1300      F1318   1.384       .  S
C1302      F1313   1.384       .  S
C1302      F1314   1.382       .  S
C1302      F1315   1.384       .  S
C1304      C1305   1.409       .  A
C1304      C1309   1.519       .  S
C1305      C1306   1.406       .  A
C1305      H1310   1.081       .  S
C1306      C1307   1.421       .  A
C1307      C1308   1.409       .  A
C1307      C1311   1.515       .  S
C1308      H1312   1.085       .  S
C1309      F1322   1.385       .  S
C1309      F1323   1.382       .  S
C1309      F1324   1.382       .  S
C1311      F1319   1.383       .  S
C1311      F1320   1.379       .  S
C1311      F1321   1.384       .  S
C1325      C1326   1.400       .  A
C1325      C1330   1.412       .  A
C1325      H1335   1.083       .  S
C1326      C1327   1.416       .  A
C1326      C1331   1.491       .  S
C1327      C1328   1.411       .  A
C1327      C1332   1.522       .  S
C1328      C1329   1.411       .  A
C1328      H1333   1.083       .  S
C1329      C1330   1.429       .  A
C1330      C1334   1.520       .  S
C1331      C1336   1.416       .  A
C1331      C1340   1.400       .  A
C1332      F1348   1.382       .  S
C1332      F1349   1.382       .  S
C1332      F1350   1.384       .  S
C1334      F1345   1.385       .  S
C1334      F1346   1.383       .  S
C1334      F1347   1.383       .  S
C1336      C1337   1.412       .  A
C1336      C1341   1.518       .  S
C1337      C1338   1.406       .  A
C1337      H1342   1.082       .  S
C1338      C1339   1.420       .  A
C1339      C1340   1.406       .  A
C1339      C1343   1.518       .  S
C1340      H1344   1.084       .  S
C1341      F1354   1.384       .  S
C1341      F1355   1.383       .  S
C1341      F1356   1.382       .  S
C1343      F1351   1.381       .  S
C1343      F1352   1.380       .  S
C1343      F1353   1.385       .  S
C1357      C1358   1.398       .  A
C1357      C1362   1.410       .  A
C1357      H1367   1.083       .  S
C1358      C1359   1.412       .  A
C1358      C1363   1.488       .  S
C1359      C1360   1.408       .  A
C1359      C1364   1.519       .  S
C1360      C1361   1.413       .  A
C1360      H1365   1.081       .  S
C1361      C1362   1.435       .  A
C1362      C1366   1.525       .  S
C1363      C1368   1.416       .  A
C1363      C1372   1.402       .  A
C1364      F1380   1.382       .  S
C1364      F1381   1.384       .  S
C1364      F1382   1.382       .  S
C1366      F1377   1.385       .  S
C1366      F1378   1.383       .  S
C1366      F1379   1.384       .  S
C1368      C1369   1.407       .  A
C1368      C1373   1.521       .  S
C1369      C1370   1.403       .  A
C1369      H1374   1.073       .  S
C1370      C1371   1.420       .  A
C1371      C1372   1.406       .  A
C1371      C1375   1.517       .  S
C1372      H1376   1.085       .  S
C1373      F1386   1.385       .  S
C1373      F1387   1.382       .  S
C1373      F1388   1.381       .  S
C1375      F1383   1.384       .  S
C1375      F1384   1.380       .  S
C1375      F1385   1.383       .  S
C1389      C1390   1.401   1_545  A
C1389      C1394   1.409       .  A
C1389      H1399   1.083       .  S
C1390      C1391   1.410       .  A
C1390      C1395   1.484       .  S
C1391      C1392   1.407       .  A
C1391      C1396   1.519       .  S
C1392      C1393   1.414       .  A
C1392      H1397   1.083       .  S
C1393      C1394   1.425   1_565  A
C1394      C1398   1.521       .  S
C1395      C1400   1.418   1_565  A
C1395      C1404   1.402       .  A
C1396      F1412   1.382       .  S
C1396      F1413   1.383       .  S
C1396      F1414   1.385       .  S
C1398      F1409   1.384       .  S
C1398      F1410   1.385       .  S
C1398      F1411   1.383   1_545  S
C1400      C1401   1.405       .  A
C1400      C1405   1.518       .  S
C1401      C1402   1.401   1_545  A
C1401      H1406   1.082       .  S
C1402      C1403   1.416       .  A
C1403      C1404   1.406       .  A
C1403      C1407   1.518       .  S
C1404      H1408   1.083       .  S
C1405      F1418   1.384       .  S
C1405      F1419   1.383       .  S
C1405      F1420   1.382       .  S
C1407      F1415   1.384       .  S
C1407      F1416   1.382       .  S
C1407      F1417   1.379       .  S
C1421      C1422   1.397       .  A
C1421      C1426   1.399       .  A
C1421      H1431   1.085       .  S
C1422      C1423   1.415   1_545  A
C1422      C1427   1.478       .  S
C1423      C1424   1.408   1_565  A
C1423      C1428   1.518       .  S
C1424      C1425   1.405       .  A
C1424      H1429   1.081   1_545  S
C1425      C1426   1.422       .  A
C1426      C1430   1.519       .  S
C1427      C1432   1.415   1_545  A
C1427      C1436   1.394       .  A
C1428      F1444   1.382       .  S
C1428      F1445   1.382       .  S
C1428      F1446   1.385       .  S
C1430      F1441   1.383       .  S
C1430      F1442   1.384       .  S
C1430      F1443   1.380       .  S
C1432      C1433   1.408       .  A
C1432      C1437   1.518       .  S
C1433      C1434   1.406   1_565  A
C1433      H1438   1.083       .  S
C1434      C1435   1.427       .  A
C1435      C1436   1.401       .  A
C1435      C1439   1.520       .  S
C1436      H1440   1.084       .  S
C1437      F1450   1.385       .  S
C1437      F1451   1.383   1_565  S
C1437      F1452   1.381       .  S
C1439      F1447   1.385       .  S
C1439      F1448   1.381       .  S
C1439      F1449   1.383       .  S
C1453      C1454   1.398       .  A
C1453      C1458   1.404       .  A
C1453      H1463   1.083   1_565  S
C1454      C1455   1.415       .  A
C1454      C1459   1.481       .  S
C1455      C1456   1.406       .  A
C1455      C1460   1.520       .  S
C1456      C1457   1.403       .  A
C1456      H1461   1.081       .  S
C1457      C1458   1.418       .  A
C1458      C1462   1.517   1_565  S
C1459      C1464   1.410       .  A
C1459      C1468   1.400       .  A
C1460      F1476   1.382       .  S
C1460      F1477   1.381       .  S
C1460      F1478   1.384       .  S
C1462      F1473   1.377       .  S
C1462      F1474   1.385       .  S
C1462      F1475   1.382       .  S
C1464      C1465   1.405       .  A
C1464      C1469   1.520   1_565  S
C1465      C1466   1.412       .  A
C1465      H1470   1.083   1_565  S
C1466      C1467   1.425       .  A
C1467      C1468   1.407       .  A
C1467      C1471   1.521       .  S
C1468      H1472   1.083       .  S
C1469      F1482   1.383       .  S
C1469      F1483   1.382       .  S
C1469      F1484   1.383   1_545  S
C1471      F1479   1.385       .  S
C1471      F1480   1.383       .  S
C1471      F1481   1.383       .  S
C1485      C1486   1.396       .  A
C1485      C1490   1.402       .  A
C1485      H1495   1.084       .  S
C1486      C1487   1.415       .  A
C1486      C1491   1.473       .  S
C1487      C1488   1.404       .  A
C1487      C1492   1.522       .  S
C1488      C1489   1.406       .  A
C1488      H1493   1.083       .  S
C1489      C1490   1.425       .  A
C1490      C1494   1.520       .  S
C1491      C1496   1.414       .  A
C1491      C1500   1.397       .  A
C1492      F1508   1.382       .  S
C1492      F1509   1.381       .  S
C1492      F1510   1.384       .  S
C1494      F1505   1.383       .  S
C1494      F1506   1.385       .  S
C1494      F1507   1.384       .  S
C1496      C1497   1.406       .  A
C1496      C1501   1.519       .  S
C1497      C1498   1.402       .  A
C1497      H1502   1.083       .  S
C1498      C1499   1.418       .  A
C1499      C1500   1.399       .  A
C1499      C1503   1.522       .  S
C1500      H1504   1.083       .  S
C1501      F1514   1.385       .  S
C1501      F1515   1.383       .  S
C1501      F1516   1.381       .  S
C1503      F1511   1.385       .  S
C1503      F1512   1.378       .  S
C1503      F1513   1.380       .  S
C1517      C1518   1.398       .  A
C1517      C1522   1.401       .  A
C1517      H1527   1.085       .  S
C1518      C1519   1.416       .  A
C1518      C1523   1.484       .  S
C1519      C1520   1.409       .  A
C1519      C1524   1.518       .  S
C1520      C1521   1.405       .  A
C1520      H1525   1.081       .  S
C1521      C1522   1.422       .  A
C1522      C1526   1.520       .  S
C1523      C1528   1.413       .  A
C1523      C1532   1.404       .  A
C1524      F1540   1.382       .  S
C1524      F1541   1.382       .  S
C1524      F1542   1.385       .  S
C1526      F1537   1.384       .  S
C1526      F1538   1.383       .  S
C1526      F1539   1.381       .  S
C1528      C1529   1.402       .  A
C1528      C1533   1.522       .  S
C1529      C1530   1.409       .  A
C1529      H1534   1.083       .  S
C1530      C1531   1.419       .  A
C1531      C1532   1.411       .  A
C1531      C1535   1.517       .  S
C1532      H1536   1.083       .  S
C1533      F1546   1.385       .  S
C1533      F1547   1.382       .  S
C1533      F1548   1.382       .  S
C1535      F1543   1.382       .  S
C1535      F1544   1.384       .  S
C1535      F1545   1.385       .  S
C1549      C1550   1.401       .  A
C1549      C1554   1.406       .  A
C1549      H1559   1.083       .  S
C1550      C1551   1.410       .  A
C1550      C1555   1.479       .  S
C1551      C1552   1.405       .  A
C1551      C1556   1.521       .  S
C1552      C1553   1.413       .  A
C1552      H1557   1.083       .  S
C1553      C1554   1.421       .  A
C1554      C1558   1.519       .  S
C1555      C1560   1.413       .  A
C1555      C1564   1.402       .  A
C1556      F1572   1.382       .  S
C1556      F1573   1.382       .  S
C1556      F1574   1.385       .  S
C1558      F1569   1.382       .  S
C1558      F1570   1.385       .  S
C1558      F1571   1.384       .  S
C1560      C1561   1.403       .  A
C1560      C1565   1.521       .  S
C1561      C1562   1.406       .  A
C1561      H1566   1.083       .  S
C1562      C1563   1.419       .  A
C1563      C1564   1.405       .  A
C1563      C1567   1.517       .  S
C1564      H1568   1.085       .  S
C1565      F1578   1.385       .  S
C1565      F1579   1.382       .  S
C1565      F1580   1.381       .  S
C1567      F1575   1.384       .  S
C1567      F1576   1.379       .  S
C1567      F1577   1.382       .  S
C1581      C1582   1.400       .  A
C1581      C1586   1.404       .  A
C1581      H1591   1.083       .  S
C1582      C1583   1.414       .  A
C1582      C1587   1.476       .  S
C1583      C1584   1.403       .  A
C1583      C1588   1.519       .  S
C1584      C1585   1.401       .  A
C1584      H1589   1.083       .  S
C1585      C1586   1.414       .  A
C1586      C1590   1.515       .  S
C1587      C1592   1.411       .  A
C1587      C1596   1.392       .  A
C1588      F1604   1.382       .  S
C1588      F1605   1.382       .  S
C1588      F1606   1.384       .  S
C1590      F1601   1.384       .  S
C1590      F1602   1.379       .  S
C1590      F1603   1.383       .  S
C1592      C1593   1.405       .  A
C1592      C1597   1.520       .  S
C1593      C1594   1.411       .  A
C1593      H1598   1.082       .  S
C1594      C1595   1.437       .  A
C1595      C1596   1.404       .  A
C1595      C1599   1.525       .  S
C1596      H1600   1.083       .  S
C1597      F1610   1.384       .  S
C1597      F1611   1.382       .  S
C1597      F1612   1.382       .  S
C1599      F1607   1.383       .  S
C1599      F1608   1.382       .  S
C1599      F1609   1.385       .  S
C1613      C1614   1.400       .  A
C1613      C1618   1.411       .  A
C1613      H1623   1.083       .  S
C1614      C1615   1.416       .  A
C1614      C1619   1.496       .  S
C1615      C1616   1.409       .  A
C1615      C1620   1.519       .  S
C1616      C1617   1.410       .  A
C1616      H1621   1.081       .  S
C1617      C1618   1.434       .  A
C1618      C1622   1.525       .  S
C1619      C1624   1.420       .  A
C1619      C1628   1.402   1_565  A
C1620      F1636   1.382   1_565  S
C1620      F1637   1.382       .  S
C1620      F1638   1.385   1_565  S
C1622      F1633   1.384       .  S
C1622      F1634   1.385       .  S
C1622      F1635   1.383       .  S
C1624      C1625   1.412       .  A
C1624      C1629   1.519       .  S
C1625      C1626   1.402       .  A
C1625      H1630   1.081       .  S
C1626      C1627   1.420   1_565  A
C1627      C1628   1.406       .  A
C1627      C1631   1.518       .  S
C1628      H1632   1.084       .  S
C1629      F1642   1.384       .  S
C1629      F1643   1.382       .  S
C1629      F1644   1.383       .  S
C1631      F1639   1.383       .  S
C1631      F1640   1.380       .  S
C1631      F1641   1.383       .  S
C1645      C1646   1.402       .  A
C1645      C1650   1.407       .  A
C1645      H1655   1.084       .  S
C1646      C1647   1.419   1_545  A
C1646      C1651   1.494       .  S
C1647      C1648   1.410       .  A
C1647      C1652   1.519       .  S
C1648      C1649   1.404   1_565  A
C1648      H1653   1.082       .  S
C1649      C1650   1.422       .  A
C1650      C1654   1.517       .  S
C1651      C1656   1.414   1_545  A
C1651      C1660   1.400       .  A
C1652      F1668   1.381       .  S
C1652      F1669   1.382       .  S
C1652      F1670   1.385       .  S
C1654      F1665   1.383       .  S
C1654      F1666   1.385       .  S
C1654      F1667   1.379       .  S
C1656      C1657   1.409       .  A
C1656      C1661   1.521       .  S
C1657      C1658   1.414       .  A
C1657      H1662   1.080       .  S
C1658      C1659   1.431   1_565  A
C1659      C1660   1.411       .  A
C1659      C1663   1.523       .  S
C1660      H1664   1.082       .  S
C1661      F1674   1.385       .  S
C1661      F1675   1.381   1_565  S
C1661      F1676   1.383       .  S
C1663      F1671   1.385       .  S
C1663      F1672   1.383       .  S
C1663      F1673   1.385   1_545  S
C1677      C1678   1.398       .  A
C1677      C1682   1.410       .  A
C1677      H1687   1.083       .  S
C1678      C1679   1.414       .  A
C1678      C1683   1.494       .  S
C1679      C1680   1.412       .  A
C1679      C1684   1.521       .  S
C1680      C1681   1.414       .  A
C1680      H1685   1.081       .  S
C1681      C1682   1.434       .  A
C1682      C1686   1.524       .  S
C1683      C1688   1.419   1_565  A
C1683      C1692   1.401       .  A
C1684      F1700   1.382       .  S
C1684      F1701   1.383   1_565  S
C1684      F1702   1.384       .  S
C1686      F1697   1.384   1_565  S
C1686      F1698   1.385       .  S
C1686      F1699   1.382       .  S
C1688      C1689   1.410   1_545  A
C1688      C1693   1.518       .  S
C1689      C1690   1.403       .  A
C1689      H1694   1.082   1_565  S
C1690      C1691   1.421       .  A
C1691      C1692   1.405       .  A
C1691      C1695   1.519       .  S
C1692      H1696   1.084       .  S
C1693      F1706   1.385       .  S
C1693      F1707   1.381       .  S
C1693      F1708   1.383       .  S
C1695      F1703   1.384       .  S
C1695      F1704   1.380       .  S
C1695      F1705   1.382       .  S
C1709      C1710   1.401       .  A
C1709      C1714   1.403       .  A
C1709      H1719   1.083       .  S
C1710      C1711   1.415   1_545  A
C1710      C1715   1.478   1_545  S
C1711      C1712   1.407       .  A
C1711      C1716   1.520       .  S
C1712      C1713   1.404   1_565  A
C1712      H1717   1.083       .  S
C1713      C1714   1.414       .  A
C1714      C1718   1.517       .  S
C1715      C1720   1.408       .  A
C1715      C1724   1.402   1_565  A
C1716      F1732   1.382       .  S
C1716      F1733   1.380       .  S
C1716      F1734   1.385       .  S
C1718      F1729   1.380       .  S
C1718      F1730   1.385       .  S
C1718      F1731   1.382       .  S
C1720      C1721   1.401       .  A
C1720      C1725   1.523       .  S
C1721      C1722   1.416       .  A
C1721      H1726   1.080       .  S
C1722      C1723   1.426   1_565  A
C1723      C1724   1.410       .  A
C1723      C1727   1.521       .  S
C1724      H1728   1.083       .  S
C1725      F1738   1.385       .  S
C1725      F1739   1.382   1_565  S
C1725      F1740   1.380       .  S
C1727      F1735   1.385       .  S
C1727      F1736   1.384       .  S
C1727      F1737   1.383   1_545  S
C1741      C1742   1.399   1_545  A
C1741      C1746   1.413       .  A
C1741      H1751   1.083       .  S
C1742      C1743   1.413       .  A
C1742      C1747   1.493   1_565  S
C1743      C1744   1.413       .  A
C1743      C1748   1.521       .  S
C1744      C1745   1.414       .  A
C1744      H1749   1.082       .  S
C1745      C1746   1.432   1_565  A
C1746      C1750   1.522       .  S
C1747      C1752   1.417   1_545  A
C1747      C1756   1.403       .  A
C1748      F1764   1.382   1_565  S
C1748      F1765   1.381       .  S
C1748      F1766   1.384       .  S
C1750      F1761   1.383   1_545  S
C1750      F1762   1.385       .  S
C1750      F1763   1.383       .  S
C1752      C1753   1.410       .  A
C1752      C1757   1.519       .  S
C1753      C1754   1.403   1_565  A
C1753      H1758   1.080       .  S
C1754      C1755   1.419       .  A
C1755      C1756   1.407       .  A
C1755      C1759   1.518       .  S
C1756      H1760   1.085       .  S
C1757      F1770   1.385       .  S
C1757      F1771   1.382       .  S
C1757      F1772   1.380       .  S
C1759      F1767   1.384       .  S
C1759      F1768   1.381       .  S
C1759      F1769   1.382       .  S
C1773      C1774   1.405       .  A
C1773      C1778   1.408       .  A
C1773      H1783   1.083       .  S
C1774      C1775   1.417       .  A
C1774      C1779   1.488       .  S
C1775      C1776   1.407       .  A
C1775      C1780   1.520       .  S
C1776      C1777   1.405       .  A
C1776      H1781   1.083       .  S
C1777      C1778   1.417       .  A
C1778      C1782   1.519       .  S
C1779      C1784   1.420       .  A
C1779      C1788   1.399       .  A
C1780      F1796   1.381       .  S
C1780      F1797   1.382       .  S
C1780      F1798   1.385       .  S
C1782      F1793   1.383       .  S
C1782      F1794   1.385       .  S
C1782      F1795   1.382       .  S
C1784      C1785   1.412       .  A
C1784      C1789   1.520       .  S
C1785      C1786   1.404       .  A
C1785      H1790   1.081       .  S
C1786      C1787   1.418       .  A
C1787      C1788   1.401       .  A
C1787      C1791   1.517       .  S
C1788      H1792   1.085       .  S
C1789      F1802   1.385       .  S
C1789      F1803   1.382       .  S
C1789      F1804   1.382       .  S
C1791      F1799   1.384       .  S
C1791      F1800   1.383       .  S
C1791      F1801   1.383       .  S
C1805      C1806   1.402       .  A
C1805      C1810   1.401       .  A
C1805      H1815   1.083       .  S
C1806      C1807   1.415       .  A
C1806      C1811   1.472       .  S
C1807      C1808   1.399       .  A
C1807      C1812   1.519       .  S
C1808      C1809   1.399       .  A
C1808      H1813   1.084       .  S
C1809      C1810   1.410       .  A
C1810      C1814   1.515       .  S
C1811      C1816   1.408       .  A
C1811      C1820   1.400       .  A
C1812      F1828   1.382       .  S
C1812      F1829   1.383       .  S
C1812      F1830   1.385       .  S
C1814      F1825   1.380       .  S
C1814      F1826   1.384       .  S
C1814      F1827   1.383       .  S
C1816      C1817   1.398       .  A
C1816      C1821   1.522       .  S
C1817      C1818   1.415       .  A
C1817      H1822   1.082       .  S
C1818      C1819   1.423       .  A
C1819      C1820   1.405       .  A
C1819      C1823   1.520       .  S
C1820      H1824   1.083       .  S
C1821      F1834   1.385       .  S
C1821      F1835   1.382       .  S
C1821      F1836   1.383       .  S
C1823      F1831   1.381       .  S
C1823      F1832   1.384       .  S
C1823      F1833   1.385       .  S
C1837      C1838   1.399       .  A
C1837      C1842   1.407       .  A
C1837      H1847   1.083       .  S
C1838      C1839   1.416       .  A
C1838      C1843   1.484       .  S
C1839      C1840   1.407       .  A
C1839      C1844   1.520       .  S
C1840      C1841   1.406       .  A
C1840      H1845   1.083       .  S
C1841      C1842   1.425       .  A
C1842      C1846   1.522       .  S
C1843      C1848   1.417       .  A
C1843      C1852   1.399       .  A
C1844      F1860   1.382       .  S
C1844      F1861   1.382       .  S
C1844      F1862   1.385       .  S
C1846      F1857   1.382       .  S
C1846      F1858   1.385       .  S
C1846      F1859   1.383       .  S
C1848      C1849   1.411       .  A
C1848      C1853   1.519       .  S
C1849      C1850   1.403       .  A
C1849      H1854   1.081       .  S
C1850      C1851   1.419       .  A
C1851      C1852   1.403       .  A
C1851      C1855   1.519       .  S
C1852      H1856   1.085       .  S
C1853      F1866   1.384       .  S
C1853      F1867   1.383       .  S
C1853      F1868   1.382       .  S
C1855      F1863   1.384       .  S
C1855      F1864   1.383       .  S
C1855      F1865   1.383       .  S
C1869      C1870   1.398       .  A
C1869      C1874   1.405       .  A
C1869      H1879   1.083       .  S
C1870      C1871   1.406       .  A
C1870      C1875   1.472       .  S
C1871      C1872   1.401       .  A
C1871      C1876   1.521       .  S
C1872      C1873   1.415       .  A
C1872      H1877   1.081       .  S
C1873      C1874   1.427       .  A
C1874      C1878   1.522       .  S
C1875      C1880   1.414       .  A
C1875      C1884   1.400       .  A
C1876      F1892   1.383       .  S
C1876      F1893   1.382       .  S
C1876      F1894   1.384       .  S
C1878      F1889   1.382       .  S
C1878      F1890   1.385       .  S
C1878      F1891   1.384       .  S
C1880      C1881   1.402       .  A
C1880      C1885   1.521       .  S
C1881      C1882   1.402       .  A
C1881      H1886   1.084       .  S
C1882      C1883   1.414       .  A
C1883      C1884   1.404       .  A
C1883      C1887   1.516       .  S
C1884      H1888   1.083       .  S
C1885      F1898   1.384       .  S
C1885      F1899   1.383       .  S
C1885      F1900   1.382       .  S
C1887      F1895   1.385       .  S
C1887      F1896   1.383       .  S
C1887      F1897   1.381       .  S
C1901      C1902   1.401       .  A
C1901      C1906   1.406       .  A
C1901      H1911   1.083       .  S
C1902      C1903   1.408   1_545  A
C1902      C1907   1.476       .  S
C1903      C1904   1.402       .  A
C1903      C1908   1.520       .  S
C1904      C1905   1.412       .  A
C1904      H1909   1.083       .  S
C1905      C1906   1.424   1_565  A
C1906      C1910   1.523       .  S
C1907      C1912   1.413   1_545  A
C1907      C1916   1.401       .  A
C1908      F1924   1.383   1_565  S
C1908      F1925   1.381       .  S
C1908      F1926   1.384       .  S
C1910      F1921   1.382       .  S
C1910      F1922   1.384       .  S
C1910      F1923   1.384       .  S
C1912      C1913   1.405       .  A
C1912      C1917   1.521       .  S
C1913      C1914   1.405   1_565  A
C1913      H1918   1.083       .  S
C1914      C1915   1.414       .  A
C1915      C1916   1.404       .  A
C1915      C1919   1.515       .  S
C1916      H1920   1.083       .  S
C1917      F1930   1.384       .  S
C1917      F1931   1.383       .  S
C1917      F1932   1.381       .  S
C1919      F1927   1.385       .  S
C1919      F1928   1.383       .  S
C1919      F1929   1.379       .  S
C1933      C1934   1.403       .  A
C1933      C1938   1.408       .  A
C1933      H1943   1.083       .  S
C1934      C1935   1.416   1_565  A
C1934      C1939   1.486       .  S
C1935      C1936   1.407   1_545  A
C1935      C1940   1.519       .  S
C1936      C1937   1.404       .  A
C1936      H1941   1.084   1_565  S
C1937      C1938   1.414       .  A
C1938      C1942   1.514       .  S
C1939      C1944   1.412   1_565  A
C1939      C1948   1.402       .  A
C1940      F1956   1.382       .  S
C1940      F1957   1.381       .  S
C1940      F1958   1.385       .  S
C1942      F1953   1.378       .  S
C1942      F1954   1.385       .  S
C1942      F1955   1.383       .  S
C1944      C1945   1.407       .  A
C1944      C1949   1.520       .  S
C1945      C1946   1.412   1_545  A
C1945      H1950   1.082       .  S
C1946      C1947   1.425       .  A
C1947      C1948   1.410       .  A
C1947      C1951   1.520       .  S
C1948      H1952   1.083       .  S
C1949      F1962   1.385       .  S
C1949      F1963   1.382   1_545  S
C1949      F1964   1.381       .  S
C1951      F1959   1.385       .  S
C1951      F1960   1.384       .  S
C1951      F1961   1.382       .  S
C1965      C1966   1.398       .  A
C1965      C1970   1.410       .  A
C1965      H1975   1.083       .  S
C1966      C1967   1.417   1_565  A
C1966      C1971   1.492       .  S
C1967      C1968   1.412       .  A
C1967      C1972   1.519       .  S
C1968      C1969   1.408   1_545  A
C1968      H1973   1.083       .  S
C1969      C1970   1.426       .  A
C1970      C1974   1.517       .  S
C1971      C1976   1.418   1_565  A
C1971      C1980   1.400       .  A
C1972      F1988   1.383   1_545  S
C1972      F1989   1.382       .  S
C1972      F1990   1.385       .  S
C1974      F1985   1.382       .  S
C1974      F1986   1.385       .  S
C1974      F1987   1.384       .  S
C1976      C1977   1.410       .  A
C1976      C1981   1.516       .  S
C1977      C1978   1.401   1_545  A
C1977      H1982   1.080       .  S
C1978      C1979   1.423       .  A
C1979      C1980   1.408       .  A
C1979      C1983   1.522       .  S
C1980      H1984   1.083       .  S
C1981      F1994   1.385       .  S
C1981      F1995   1.383       .  S
C1981      F1996   1.382       .  S
C1983      F1991   1.385       .  S
C1983      F1992   1.383       .  S
C1983      F1993   1.380       .  S
C1997      C1998   1.403   1_565  A
C1997      C2002   1.406       .  A
C1997      H2007   1.085       .  S
C1998      C1999   1.416       .  A
C1998      C2003   1.487       .  S
C1999      C2000   1.406       .  A
C1999      C2004   1.520       .  S
C2000      C2001   1.402       .  A
C2000      H2005   1.082       .  S
C2001      C2002   1.419   1_545  A
C2002      C2006   1.520       .  S
C2003      C2008   1.410       .  A
C2003      C2012   1.401       .  A
C2004      F2020   1.382       .  S
C2004      F2021   1.382       .  S
C2004      F2022   1.385       .  S
C2006      F2017   1.383       .  S
C2006      F2018   1.383       .  S
C2006      F2019   1.380       .  S
C2008      C2009   1.407   1_545  A
C2008      C2013   1.520   1_545  S
C2009      C2010   1.414   1_565  A
C2009      H2014   1.080       .  S
C2010      C2011   1.428       .  A
C2011      C2012   1.410       .  A
C2011      C2015   1.521       .  S
C2012      H2016   1.083       .  S
C2013      F2026   1.384       .  S
C2013      F2027   1.382       .  S
C2013      F2028   1.382   1_565  S
C2015      F2023   1.385       .  S
C2015      F2024   1.383   1_545  S
C2015      F2025   1.384       .  S
C2029      C2030   1.397       .  A
C2029      C2034   1.408       .  A
C2029      H2039   1.083       .  S
C2030      C2031   1.413       .  A
C2030      C2035   1.485       .  S
C2031      C2032   1.408       .  A
C2031      C2036   1.522       .  S
C2032      C2033   1.412       .  A
C2032      H2037   1.080       .  S
C2033      C2034   1.430       .  A
C2034      C2038   1.519       .  S
C2035      C2040   1.415       .  A
C2035      C2044   1.400       .  A
C2036      F2052   1.382       .  S
C2036      F2053   1.382       .  S
C2036      F2054   1.384       .  S
C2038      F2049   1.382       .  S
C2038      F2050   1.385       .  S
C2038      F2051   1.383       .  S
C2040      C2041   1.410       .  A
C2040      C2045   1.518       .  S
C2041      C2042   1.405       .  A
C2041      H2046   1.082       .  S
C2042      C2043   1.417       .  A
C2043      C2044   1.404       .  A
C2043      C2047   1.516       .  S
C2044      H2048   1.083       .  S
C2045      F2058   1.384       .  S
C2045      F2059   1.383       .  S
C2045      F2060   1.382       .  S
C2047      F2055   1.377       .  S
C2047      F2056   1.382       .  S
C2047      F2057   1.385       .  S
C2061      C2062   1.403       .  A
C2061      C2066   1.408       .  A
C2061      H2071   1.085       .  S
C2062      C2063   1.415       .  A
C2062      C2067   1.489       .  S
C2063      C2064   1.408       .  A
C2063      C2068   1.520       .  S
C2064      C2065   1.404       .  A
C2064      H2069   1.080       .  S
C2065      C2066   1.420       .  A
C2066      C2070   1.517       .  S
C2067      C2072   1.413       .  A
C2067      C2076   1.399       .  A
C2068      F2084   1.382       .  S
C2068      F2085   1.381       .  S
C2068      F2086   1.384       .  S
C2070      F2081   1.382       .  S
C2070      F2082   1.384       .  S
C2070      F2083   1.380       .  S
C2072      C2073   1.410       .  A
C2072      C2077   1.519       .  S
C2073      C2074   1.412       .  A
C2073      H2078   1.082       .  S
C2074      C2075   1.428       .  A
C2075      C2076   1.409       .  A
C2075      C2079   1.520       .  S
C2076      H2080   1.083       .  S
C2077      F2090   1.385       .  S
C2077      F2091   1.382       .  S
C2077      F2092   1.381       .  S
C2079      F2087   1.385       .  S
C2079      F2088   1.382       .  S
C2079      F2089   1.383       .  S
C2093      C2094   1.401       .  A
C2093      C2098   1.408       .  A
C2093      H2103   1.082       .  S
C2094      C2095   1.421       .  A
C2094      C2099   1.494       .  S
C2095      C2096   1.410       .  A
C2095      C2100   1.520       .  S
C2096      C2097   1.407       .  A
C2096      H2101   1.084       .  S
C2097      C2098   1.427       .  A
C2098      C2102   1.523       .  S
C2099      C2104   1.420       .  A
C2099      C2108   1.405       .  A
C2100      F2116   1.383       .  S
C2100      F2117   1.382       .  S
C2100      F2118   1.384       .  S
C2102      F2113   1.383       .  S
C2102      F2114   1.385       .  S
C2102      F2115   1.382       .  S
C2104      C2105   1.408       .  A
C2104      C2109   1.519       .  S
C2105      C2106   1.400       .  A
C2105      H2110   1.083       .  S
C2106      C2107   1.418       .  A
C2107      C2108   1.407       .  A
C2107      C2111   1.517       .  S
C2108      H2112   1.085       .  S
C2109      F2122   1.385       .  S
C2109      F2123   1.381       .  S
C2109      F2124   1.383       .  S
C2111      F2119   1.384       .  S
C2111      F2120   1.380       .  S
C2111      F2121   1.383       .  S
C2125      C2126   1.400       .  A
C2125      C2130   1.407       .  A
C2125      H2135   1.083       .  S
C2126      C2127   1.416       .  A
C2126      C2131   1.488       .  S
C2127      C2128   1.411       .  A
C2127      C2132   1.520       .  S
C2128      C2129   1.410       .  A
C2128      H2133   1.083       .  S
C2129      C2130   1.422       .  A
C2130      C2134   1.521       .  S
C2131      C2136   1.416       .  A
C2131      C2140   1.402       .  A
C2132      F2148   1.383       .  S
C2132      F2149   1.381       .  S
C2132      F2150   1.385       .  S
C2134      F2145   1.382       .  S
C2134      F2146   1.384       .  S
C2134      F2147   1.384       .  S
C2136      C2137   1.409       .  A
C2136      C2141   1.520       .  S
C2137      C2138   1.405       .  A
C2137      H2142   1.081       .  S
C2138      C2139   1.420       .  A
C2139      C2140   1.408       .  A
C2139      C2143   1.517       .  S
C2140      H2144   1.085       .  S
C2141      F2154   1.384       .  S
C2141      F2155   1.383       .  S
C2141      F2156   1.381       .  S
C2143      F2151   1.384       .  S
C2143      F2152   1.381       .  S
C2143      F2153   1.382       .  S
C2157      C2158   1.397       .  A
C2157      C2162   1.398       .  A
C2157      H2167   1.085       .  S
C2158      C2159   1.414   1_455  A
C2158      C2163   1.475       .  S
C2159      C2160   1.407       .  A
C2159      C2164   1.517       .  S
C2160      C2161   1.403   1_655  A
C2160      H2165   1.083       .  S
C2161      C2162   1.420       .  A
C2162      C2166   1.518       .  S
C2163      C2168   1.415   1_455  A
C2163      C2172   1.394       .  A
C2164      F2180   1.383       .  S
C2164      F2181   1.382       .  S
C2164      F2182   1.384       .  S
C2166      F2177   1.383       .  S
C2166      F2178   1.384       .  S
C2166      F2179   1.382       .  S
C2168      C2169   1.405       .  A
C2168      C2173   1.520       .  S
C2169      C2170   1.406   1_655  A
C2169      H2174   1.083       .  S
C2170      C2171   1.429       .  A
C2171      C2172   1.402       .  A
C2171      C2175   1.522       .  S
C2172      H2176   1.083       .  S
C2173      F2186   1.385       .  S
C2173      F2187   1.383   1_655  S
C2173      F2188   1.382       .  S
C2175      F2183   1.385       .  S
C2175      F2184   1.383       .  S
C2175      F2185   1.382       .  S
C2189      C2190   1.396       .  A
C2189      C2194   1.399       .  A
C2189      H2199   1.085       .  S
C2190      C2191   1.414       .  A
C2190      C2195   1.478       .  S
C2191      C2192   1.408       .  A
C2191      C2196   1.518   1_655  S
C2192      C2193   1.405       .  A
C2192      H2197   1.082   1_655  S
C2193      C2194   1.424       .  A
C2194      C2198   1.521       .  S
C2195      C2200   1.417   1_655  A
C2195      C2204   1.395       .  A
C2196      F2212   1.383   1_455  S
C2196      F2213   1.382       .  S
C2196      F2214   1.384       .  S
C2198      F2209   1.384       .  S
C2198      F2210   1.380       .  S
C2198      F2211   1.383       .  S
C2200      C2201   1.408       .  A
C2200      C2205   1.520       .  S
C2201      C2202   1.403   1_455  A
C2201      H2206   1.083       .  S
C2202      C2203   1.425       .  A
C2203      C2204   1.402       .  A
C2203      C2207   1.519       .  S
C2204      H2208   1.084       .  S
C2205      F2218   1.384       .  S
C2205      F2219   1.382       .  S
C2205      F2220   1.382       .  S
C2207      F2215   1.382       .  S
C2207      F2216   1.382       .  S
C2207      F2217   1.385       .  S
C2221      C2222   1.402   1_655  A
C2221      C2226   1.407       .  A
C2221      H2231   1.084       .  S
C2222      C2223   1.413       .  A
C2222      C2227   1.477       .  S
C2223      C2224   1.400       .  A
C2223      C2228   1.522       .  S
C2224      C2225   1.406       .  A
C2224      H2229   1.083       .  S
C2225      C2226   1.419   1_455  A
C2226      C2230   1.518       .  S
C2227      C2232   1.410       .  A
C2227      C2236   1.401   1_455  A
C2228      F2244   1.383       .  S
C2228      F2245   1.381       .  S
C2228      F2246   1.385       .  S
C2230      F2241   1.382       .  S
C2230      F2242   1.385       .  S
C2230      F2243   1.381       .  S
C2232      C2233   1.406       .  A
C2232      C2237   1.520       .  S
C2233      C2234   1.409       .  A
C2233      H2238   1.083       .  S
C2234      C2235   1.420   1_455  A
C2235      C2236   1.405       .  A
C2235      C2239   1.521       .  S
C2236      H2240   1.083       .  S
C2237      F2250   1.384       .  S
C2237      F2251   1.383       .  S
C2237      F2252   1.382       .  S
C2239      F2247   1.384       .  S
C2239      F2248   1.384       .  S
C2239      F2249   1.382       .  S
C2253      C2254   1.402       .  A
C2253      C2258   1.409       .  A
C2253      H2263   1.083       .  S
C2254      C2255   1.408   1_455  A
C2254      C2259   1.480       .  S
C2255      C2256   1.403       .  A
C2255      C2260   1.520       .  S
C2256      C2257   1.413   1_655  A
C2256      H2261   1.082       .  S
C2257      C2258   1.424       .  A
C2258      C2262   1.520       .  S
C2259      C2264   1.415   1_455  A
C2259      C2268   1.404       .  A
C2260      F2276   1.383   1_655  S
C2260      F2277   1.381       .  S
C2260      F2278   1.385       .  S
C2262      F2273   1.383       .  S
C2262      F2274   1.385       .  S
C2262      F2275   1.384       .  S
C2264      C2265   1.402       .  A
C2264      C2269   1.522       .  S
C2265      C2266   1.402   1_655  A
C2265      H2270   1.084       .  S
C2266      C2267   1.414       .  A
C2267      C2268   1.409       .  A
C2267      C2271   1.517       .  S
C2268      H2272   1.083       .  S
C2269      F2282   1.385       .  S
C2269      F2283   1.382       .  S
C2269      F2284   1.381       .  S
C2271      F2279   1.384       .  S
C2271      F2280   1.383       .  S
C2271      F2281   1.380       .  S
C2285      C2286   1.401   1_455  A
C2285      C2290   1.405       .  A
C2285      H2295   1.084       .  S
C2286      C2287   1.412       .  A
C2286      C2291   1.473       .  S
C2287      C2288   1.401       .  A
C2287      C2292   1.523       .  S
C2288      C2289   1.406       .  A
C2288      H2293   1.083       .  S
C2289      C2290   1.419   1_655  A
C2290      C2294   1.520       .  S
C2291      C2296   1.407       .  A
C2291      C2300   1.403   1_655  A
C2292      F2308   1.382       .  S
C2292      F2309   1.380       .  S
C2292      F2310   1.385       .  S
C2294      F2305   1.382       .  S
C2294      F2306   1.385       .  S
C2294      F2307   1.381       .  S
C2296      C2297   1.398       .  A
C2296      C2301   1.523       .  S
C2297      C2298   1.413       .  A
C2297      H2302   1.082       .  S
C2298      C2299   1.422   1_655  A
C2299      C2300   1.408       .  A
C2299      C2303   1.522       .  S
C2300      H2304   1.083       .  S
C2301      F2314   1.385       .  S
C2301      F2315   1.382       .  S
C2301      F2316   1.380       .  S
C2303      F2311   1.385       .  S
C2303      F2312   1.383       .  S
C2303      F2313   1.381       .  S
C2317      C2318   1.404       .  A
C2317      C2322   1.406       .  A
C2317      H2327   1.083       .  S
C2318      C2319   1.415   1_655  A
C2318      C2323   1.481       .  S
C2319      C2320   1.403       .  A
C2319      C2324   1.519       .  S
C2320      C2321   1.401   1_455  A
C2320      H2325   1.084       .  S
C2321      C2322   1.413       .  A
C2322      C2326   1.517       .  S
C2323      C2328   1.410       .  A
C2323      C2332   1.401       .  A
C2324      F2340   1.382       .  S
C2324      F2341   1.381       .  S
C2324      F2342   1.385       .  S
C2326      F2337   1.381       .  S
C2326      F2338   1.385       .  S
C2326      F2339   1.383       .  S
C2328      C2329   1.404       .  A
C2328      C2333   1.523   1_655  S
C2329      C2330   1.414       .  A
C2329      H2334   1.080   1_655  S
C2330      C2331   1.427       .  A
C2331      C2332   1.410       .  A
C2331      C2335   1.521       .  S
C2332      H2336   1.083       .  S
C2333      F2346   1.384       .  S
C2333      F2347   1.382   1_455  S
C2333      F2348   1.381       .  S
C2335      F2343   1.384       .  S
C2335      F2344   1.381       .  S
C2335      F2345   1.385       .  S
C2349      C2350   1.399       .  A
C2349      C2354   1.403       .  A
C2349      H2359   1.085       .  S
C2350      C2351   1.417       .  A
C2350      C2355   1.486       .  S
C2351      C2352   1.409       .  A
C2351      C2356   1.519       .  S
C2352      C2353   1.404       .  A
C2352      H2357   1.082       .  S
C2353      C2354   1.422       .  A
C2354      C2358   1.521       .  S
C2355      C2360   1.415       .  A
C2355      C2364   1.400       .  A
C2356      F2372   1.382       .  S
C2356      F2373   1.383       .  S
C2356      F2374   1.384       .  S
C2358      F2369   1.382       .  S
C2358      F2370   1.384       .  S
C2358      F2371   1.383       .  S
C2360      C2361   1.408       .  A
C2360      C2365   1.519       .  S
C2361      C2362   1.408       .  A
C2361      H2366   1.083       .  S
C2362      C2363   1.420       .  A
C2363      C2364   1.407       .  A
C2363      C2367   1.517       .  S
C2364      H2368   1.083       .  S
C2365      F2378   1.384       .  S
C2365      F2379   1.382       .  S
C2365      F2380   1.382       .  S
C2367      F2375   1.384       .  S
C2367      F2376   1.382       .  S
C2367      F2377   1.383       .  S
C2381      C2382   1.396       .  A
C2381      C2386   1.407       .  A
C2381      H2391   1.083       .  S
C2382      C2383   1.417       .  A
C2382      C2387   1.486       .  S
C2383      C2384   1.413       .  A
C2383      C2388   1.520       .  S
C2384      C2385   1.407       .  A
C2384      H2389   1.083       .  S
C2385      C2386   1.429       .  A
C2386      C2390   1.520       .  S
C2387      C2392   1.415       .  A
C2387      C2396   1.398       .  A
C2388      F2404   1.383       .  S
C2388      F2405   1.382       .  S
C2388      F2406   1.384       .  S
C2390      F2401   1.382       .  S
C2390      F2402   1.385       .  S
C2390      F2403   1.383       .  S
C2392      C2393   1.411       .  A
C2392      C2397   1.519       .  S
C2393      C2394   1.408       .  A
C2393      H2398   1.077       .  S
C2394      C2395   1.421       .  A
C2395      C2396   1.402       .  A
C2395      C2399   1.517       .  S
C2396      H2400   1.085       .  S
C2397      F2410   1.385       .  S
C2397      F2411   1.383       .  S
C2397      F2412   1.382       .  S
C2399      F2407   1.384       .  S
C2399      F2408   1.381       .  S
C2399      F2409   1.383       .  S
C2413      C2414   1.401       .  A
C2413      C2418   1.409       .  A
C2413      H2423   1.083       .  S
C2414      C2415   1.408       .  A
C2414      C2419   1.480       .  S
C2415      C2416   1.403       .  A
C2415      C2420   1.520       .  S
C2416      C2417   1.415       .  A
C2416      H2421   1.082       .  S
C2417      C2418   1.427       .  A
C2418      C2422   1.521       .  S
C2419      C2424   1.414       .  A
C2419      C2428   1.403       .  A
C2420      F2436   1.383       .  S
C2420      F2437   1.383       .  S
C2420      F2438   1.384       .  S
C2422      F2433   1.383       .  S
C2422      F2434   1.385       .  S
C2422      F2435   1.384       .  S
C2424      C2425   1.399       .  A
C2424      C2429   1.521       .  S
C2425      C2426   1.402       .  A
C2425      H2430   1.083       .  S
C2426      C2427   1.420       .  A
C2427      C2428   1.408       .  A
C2427      C2431   1.520       .  S
C2428      H2432   1.084       .  S
C2429      F2442   1.384       .  S
C2429      F2443   1.382       .  S
C2429      F2444   1.382       .  S
C2431      F2439   1.384       .  S
C2431      F2440   1.380       .  S
C2431      F2441   1.383       .  S
C2445      C2446   1.399       .  A
C2445      C2450   1.407       .  A
C2445      H2455   1.083       .  S
C2446      C2447   1.406       .  A
C2446      C2451   1.475       .  S
C2447      C2448   1.400       .  A
C2447      C2452   1.522       .  S
C2448      C2449   1.417       .  A
C2448      H2453   1.081       .  S
C2449      C2450   1.428       .  A
C2450      C2454   1.520       .  S
C2451      C2456   1.415       .  A
C2451      C2460   1.401       .  A
C2452      F2468   1.382       .  S
C2452      F2469   1.383       .  S
C2452      F2470   1.384       .  S
C2454      F2465   1.382       .  S
C2454      F2466   1.385       .  S
C2454      F2467   1.383       .  S
C2456      C2457   1.398       .  A
C2456      C2461   1.521       .  S
C2457      C2458   1.400       .  A
C2457      H2462   1.083       .  S
C2458      C2459   1.417       .  A
C2459      C2460   1.402       .  A
C2459      C2463   1.519       .  S
C2460      H2464   1.085       .  S
C2461      F2474   1.385       .  S
C2461      F2475   1.382       .  S
C2461      F2476   1.382       .  S
C2463      F2471   1.384       .  S
C2463      F2472   1.380       .  S
C2463      F2473   1.383       .  S
C2477      C2478   1.399       .  A
C2477      C2482   1.403       .  A
C2477      H2487   1.083       .  S
C2478      C2479   1.417       .  A
C2478      C2483   1.483       .  S
C2479      C2480   1.409       .  A
C2479      C2484   1.518       .  S
C2480      C2481   1.402       .  A
C2480      H2485   1.083       .  S
C2481      C2482   1.419       .  A
C2482      C2486   1.522       .  S
C2483      C2488   1.415       .  A
C2483      C2492   1.395       .  A
C2484      F2500   1.383       .  S
C2484      F2501   1.382       .  S
C2484      F2502   1.385       .  S
C2486      F2497   1.380       .  S
C2486      F2498   1.385       .  S
C2486      F2499   1.382       .  S
C2488      C2489   1.408       .  A
C2488      C2493   1.519       .  S
C2489      C2490   1.407       .  A
C2489      H2494   1.083       .  S
C2490      C2491   1.430       .  A
C2491      C2492   1.406       .  A
C2491      C2495   1.519       .  S
C2492      H2496   1.083       .  S
C2493      F2506   1.384       .  S
C2493      F2507   1.382       .  S
C2493      F2508   1.382       .  S
C2495      F2503   1.385       .  S
C2495      F2504   1.384       .  S
C2495      F2505   1.384       .  S
C2509      C2510   1.396       .  A
C2509      C2514   1.402       .  A
C2509      H2519   1.083       .  S
C2510      C2511   1.416       .  A
C2510      C2515   1.477       .  S
C2511      C2512   1.408       .  A
C2511      C2516   1.519       .  S
C2512      C2513   1.402       .  A
C2512      H2517   1.083       .  S
C2513      C2514   1.420       .  A
C2514      C2518   1.521       .  S
C2515      C2520   1.416       .  A
C2515      C2524   1.396       .  A
C2516      F2532   1.383       .  S
C2516      F2533   1.383       .  S
C2516      F2534   1.384       .  S
C2518      F2529   1.380       .  S
C2518      F2530   1.385       .  S
C2518      F2531   1.381       .  S
C2520      C2521   1.406       .  A
C2520      C2525   1.520       .  S
C2521      C2522   1.403       .  A
C2521      H2526   1.081       .  S
C2522      C2523   1.424       .  A
C2523      C2524   1.403       .  A
C2523      C2527   1.521       .  S
C2524      H2528   1.084       .  S
C2525      F2538   1.384       .  S
C2525      F2539   1.383       .  S
C2525      F2540   1.382       .  S
C2527      F2535   1.384       .  S
C2527      F2536   1.384       .  S
C2527      F2537   1.383       .  S
C2541      C2542   1.396       .  A
C2541      C2546   1.402       .  A
C2541      H2551   1.084       .  S
C2542      C2543   1.415       .  A
C2542      C2547   1.477       .  S
C2543      C2544   1.407       .  A
C2543      C2548   1.520       .  S
C2544      C2545   1.405       .  A
C2544      H2549   1.081       .  S
C2545      C2546   1.426       .  A
C2546      C2550   1.522       .  S
C2547      C2552   1.415       .  A
C2547      C2556   1.395       .  A
C2548      F2564   1.382       .  S
C2548      F2565   1.381       .  S
C2548      F2566   1.382       .  S
C2550      F2561   1.383       .  S
C2550      F2562   1.385       .  S
C2550      F2563   1.383       .  S
C2552      C2553   1.410       .  A
C2552      C2557   1.518       .  S
C2553      C2554   1.404       .  A
C2553      H2558   1.083       .  S
C2554      C2555   1.424       .  A
C2555      C2556   1.396       .  A
C2555      C2559   1.523       .  S
C2556      H2560   1.085       .  S
C2557      F2570   1.384       .  S
C2557      F2571   1.382       .  S
C2557      F2572   1.382       .  S
C2559      F2567   1.384       .  S
C2559      F2568   1.379       .  S
C2559      F2569   1.383       .  S
C2573      C2574   1.395       .  A
C2573      C2578   1.398       .  A
C2573      H2583   1.084       .  S
C2574      C2575   1.416       .  A
C2574      C2579   1.469       .  S
C2575      C2576   1.406       .  A
C2575      C2580   1.521       .  S
C2576      C2577   1.404       .  A
C2576      H2581   1.083       .  S
C2577      C2578   1.423       .  A
C2578      C2582   1.521       .  S
C2579      C2584   1.413       .  A
C2579      C2588   1.397       .  A
C2580      F2596   1.383       .  S
C2580      F2597   1.381       .  S
C2580      F2598   1.385       .  S
C2582      F2593   1.382       .  S
C2582      F2594   1.385       .  S
C2582      F2595   1.383       .  S
C2584      C2585   1.407       .  A
C2584      C2589   1.519       .  S
C2585      C2586   1.405       .  A
C2585      H2590   1.083       .  S
C2586      C2587   1.416       .  A
C2587      C2588   1.394       .  A
C2587      C2591   1.520       .  S
C2588      H2592   1.085       .  S
C2589      F2602   1.384       .  S
C2589      F2603   1.383       .  S
C2589      F2604   1.381       .  S
C2591      F2599   1.384       .  S
C2591      F2600   1.381       .  S
C2591      F2601   1.382       .  S
C2605      C2606   1.400       .  A
C2605      C2610   1.414       .  A
C2605      H2615   1.083       .  S
C2606      C2607   1.412       .  A
C2606      C2611   1.494       .  S
C2607      C2608   1.411       .  A
C2607      C2612   1.520       .  S
C2608      C2609   1.416       .  A
C2608      H2613   1.082       .  S
C2609      C2610   1.431       .  A
C2610      C2614   1.520       .  S
C2611      C2616   1.417   1_655  A
C2611      C2620   1.402       .  A
C2612      F2628   1.383       .  S
C2612      F2629   1.382   1_655  S
C2612      F2630   1.384   1_655  S
C2614      F2625   1.378       .  S
C2614      F2626   1.385       .  S
C2614      F2627   1.383       .  S
C2616      C2617   1.411       .  A
C2616      C2621   1.519       .  S
C2617      C2618   1.406   1_455  A
C2617      H2622   1.082       .  S
C2618      C2619   1.422       .  A
C2619      C2620   1.410       .  A
C2619      C2623   1.514       .  S
C2620      H2624   1.084       .  S
C2621      F2634   1.384       .  S
C2621      F2635   1.382       .  S
C2621      F2636   1.382       .  S
C2623      F2631   1.384       .  S
C2623      F2632   1.377       .  S
C2623      F2633   1.383       .  S
C2637      C2638   1.400       .  A
C2637      C2642   1.409       .  A
C2637      H2647   1.083       .  S
C2638      C2639   1.414   1_455  A
C2638      C2643   1.490       .  S
C2639      C2640   1.411       .  A
C2639      C2644   1.520       .  S
C2640      C2641   1.410   1_655  A
C2640      H2645   1.083       .  S
C2641      C2642   1.425       .  A
C2642      C2646   1.521       .  S
C2643      C2648   1.415   1_455  A
C2643      C2652   1.401       .  A
C2644      F2660   1.383       .  S
C2644      F2661   1.382       .  S
C2644      F2662   1.384       .  S
C2646      F2657   1.381       .  S
C2646      F2658   1.385       .  S
C2646      F2659   1.383       .  S
C2648      C2649   1.409       .  A
C2648      C2653   1.519       .  S
C2649      C2650   1.407   1_655  A
C2649      H2654   1.081       .  S
C2650      C2651   1.424       .  A
C2651      C2652   1.408       .  A
C2651      C2655   1.518       .  S
C2652      H2656   1.085       .  S
C2653      F2666   1.384       .  S
C2653      F2667   1.382       .  S
C2653      F2668   1.382       .  S
C2655      F2663   1.384       .  S
C2655      F2664   1.379       .  S
C2655      F2665   1.383       .  S
C2669      C2670   1.403       .  A
C2669      C2674   1.409       .  A
C2669      H2679   1.084       .  S
C2670      C2671   1.418   1_655  A
C2670      C2675   1.495       .  S
C2671      C2672   1.411       .  A
C2671      C2676   1.519       .  S
C2672      C2673   1.405   1_455  A
C2672      H2677   1.082       .  S
C2673      C2674   1.420       .  A
C2674      C2678   1.519       .  S
C2675      C2680   1.415   1_655  A
C2675      C2684   1.399       .  A
C2676      F2692   1.382       .  S
C2676      F2693   1.381       .  S
C2676      F2694   1.385       .  S
C2678      F2689   1.382       .  S
C2678      F2690   1.384       .  S
C2678      F2691   1.381       .  S
C2680      C2681   1.414       .  A
C2680      C2685   1.520       .  S
C2681      C2682   1.414   1_455  A
C2681      H2686   1.082       .  S
C2682      C2683   1.429       .  A
C2683      C2684   1.411       .  A
C2683      C2687   1.519       .  S
C2684      H2688   1.083       .  S
C2685      F2698   1.385       .  S
C2685      F2699   1.382       .  S
C2685      F2700   1.382       .  S
C2687      F2695   1.385       .  S
C2687      F2696   1.382       .  S
C2687      F2697   1.382       .  S
C2701      C2702   1.401       .  A
C2701      C2706   1.408       .  A
C2701      H2711   1.083       .  S
C2702      C2703   1.411   1_455  A
C2702      C2707   1.485       .  S
C2703      C2704   1.408       .  A
C2703      C2708   1.520       .  S
C2704      C2705   1.412   1_655  A
C2704      H2709   1.081       .  S
C2705      C2706   1.424       .  A
C2706      C2710   1.520       .  S
C2707      C2712   1.415   1_455  A
C2707      C2716   1.404       .  A
C2708      F2724   1.382   1_655  S
C2708      F2725   1.382       .  S
C2708      F2726   1.384       .  S
C2710      F2721   1.385       .  S
C2710      F2722   1.383       .  S
C2710      F2723   1.383       .  S
C2712      C2713   1.404   1_655  A
C2712      C2717   1.521       .  S
C2713      C2714   1.404       .  A
C2713      H2718   1.083   1_455  S
C2714      C2715   1.417       .  A
C2715      C2716   1.407       .  A
C2715      C2719   1.518       .  S
C2716      H2720   1.084       .  S
C2717      F2730   1.385       .  S
C2717      F2731   1.382       .  S
C2717      F2732   1.382       .  S
C2719      F2727   1.384       .  S
C2719      F2728   1.380       .  S
C2719      F2729   1.382       .  S
C2733      C2734   1.401       .  A
C2733      C2738   1.402       .  A
C2733      H2743   1.085       .  S
C2734      C2735   1.416   1_455  A
C2734      C2739   1.481       .  S
C2735      C2736   1.405   1_655  A
C2735      C2740   1.519       .  S
C2736      C2737   1.402       .  A
C2736      H2741   1.082   1_455  S
C2737      C2738   1.416       .  A
C2738      C2742   1.518       .  S
C2739      C2744   1.415       .  A
C2739      C2748   1.394       .  A
C2740      F2756   1.382       .  S
C2740      F2757   1.383       .  S
C2740      F2758   1.385       .  S
C2742      F2753   1.383       .  S
C2742      F2754   1.384       .  S
C2742      F2755   1.382       .  S
C2744      C2745   1.406       .  A
C2744      C2749   1.519       .  S
C2745      C2746   1.408       .  A
C2745      H2750   1.082       .  S
C2746      C2747   1.434   1_455  A
C2747      C2748   1.404   1_655  A
C2747      C2751   1.525       .  S
C2748      H2752   1.083       .  S
C2749      F2762   1.384       .  S
C2749      F2763   1.382       .  S
C2749      F2764   1.383       .  S
C2751      F2759   1.385       .  S
C2751      F2760   1.384   1_655  S
C2751      F2761   1.384       .  S
C2765      C2766   1.401   1_655  A
C2765      C2770   1.412       .  A
C2765      H2775   1.083       .  S
C2766      C2767   1.414       .  A
C2766      C2771   1.492       .  S
C2767      C2768   1.410       .  A
C2767      C2772   1.520       .  S
C2768      C2769   1.411       .  A
C2768      H2773   1.083       .  S
C2769      C2770   1.427   1_455  A
C2770      C2774   1.520       .  S
C2771      C2776   1.416       .  A
C2771      C2780   1.405   1_455  A
C2772      F2788   1.383       .  S
C2772      F2789   1.381       .  S
C2772      F2790   1.385       .  S
C2774      F2785   1.382       .  S
C2774      F2786   1.385       .  S
C2774      F2787   1.384       .  S
C2776      C2777   1.407       .  A
C2776      C2781   1.520       .  S
C2777      C2778   1.404       .  A
C2777      H2782   1.081       .  S
C2778      C2779   1.417   1_455  A
C2779      C2780   1.410       .  A
C2779      C2783   1.515       .  S
C2780      H2784   1.084       .  S
C2781      F2794   1.385       .  S
C2781      F2795   1.383       .  S
C2781      F2796   1.381       .  S
C2783      F2791   1.384       .  S
C2783      F2792   1.380       .  S
C2783      F2793   1.382       .  S
