geometry optimzed in LAMMPS
_audit_creation_date              2020-11-30 
_audit_creation_method            'lammps2cif' 
_symmetry_space_group_name_H-M    'P1' 
_symmetry_Int_Tables_number       1 
_symmetry_cell_setting            triclinic 
loop_ 
_symmetry_equiv_pos_as_xyz 
  x,y,z 
_cell_length_a                    30.04679223 
_cell_length_b                    30.18732159151434 
_cell_length_c                    29.703341842532545 
_cell_angle_alpha                 88.35133928382082 
_cell_angle_beta                  90.51132130118141 
_cell_angle_gamma                 89.99942609930467 
loop_ 
_atom_site_label 
_atom_site_type_symbol 
_atom_site_fract_x 
_atom_site_fract_y 
_atom_site_fract_z 
_atom_site_charge 
O1          O  0.53022117  0.18866690  0.27542909    -0.81700
O2          O  0.45560605  0.05259936  0.15266076    -0.66400
O3          O  0.48035499  0.16442845  0.20054120    -1.13000
C4          C  0.35140302  0.13739659  0.28207804     1.05200
O5          O  0.38456324  0.06932212  0.13949835    -0.79600
O6          O  0.36855044  0.15729572  0.15950266    -0.67200
Ni7        Ni  0.53984307  0.18191676  0.21189020     1.34900
C8          C  0.37611588  0.19472442  0.17682935     0.83900
O9          O  0.51656898  0.11291728  0.13306666    -0.80200
O10         O  0.55439718  0.17484114  0.14931352    -0.90400
C11         C  0.41805743  0.04373946  0.13569387     0.83500
O12         O  0.56485463  0.12518178  0.22536455    -0.68600
O13         O  0.33827395  0.12841794  0.24244100    -0.87900
C14         C  0.54930384  0.08621092  0.22872295     0.84300
C15         C  0.54654907  0.14156311  0.12482727     1.05900
H16         H  0.42700677  0.07947481  0.23784142     0.37700
O17         O  0.42265677  0.10466739  0.21745907    -1.10600
O18         O  0.39801978  0.19801144  0.21376643    -0.67200
Ni19       Ni  0.43742478  0.15728576  0.24765595     1.26300
O20         O  0.50970715  0.07632748  0.21685032    -0.67500
O21         O  0.39184625  0.14688154  0.29155821    -0.79700
C22         C  0.49807574  0.20490131  0.29726346     0.83700
O23         O  0.45866671  0.20665850  0.28110871    -0.66900
Ni24       Ni  0.36478524  0.10114404  0.19150298     1.27400
Ni25       Ni  0.46986447  0.10829383  0.17564762     1.26100
H26         H  0.46925242  0.18611827  0.17871380     0.38200
O27         O  0.18990064  0.23484300  0.55468127    -0.81700
O28         O  0.04524761  0.13768753  0.45693612    -0.66400
O29         O  0.16009302  0.17415456  0.49304085    -1.13000
C30         C  0.14706633  0.27171550  0.37153446     1.05200
O31         O  0.07478239  0.12716751  0.39024051    -0.79600
O32         O  0.16222045  0.15216281  0.37868033    -0.67200
Ni33       Ni  0.17841127  0.17209649  0.55406183     1.34900
C34         C  0.19863290  0.17037308  0.39026159     0.83900
O35         O  0.10171459  0.10727687  0.52060572    -0.80200
O36         O  0.16687952  0.10908526  0.55771461    -0.90400
C37         C  0.04201559  0.12350344  0.41707446     0.83500
O38         O  0.12196148  0.18342450  0.58011453    -0.68600
O39         O  0.13346568  0.23590384  0.35398272    -0.87900
C40         C  0.08553914  0.19762973  0.56327859     0.84300
C41         C  0.13067030  0.08968410  0.54705070     1.05900
H42         H  0.07965644  0.22174539  0.43764909     0.37700
O43         O  0.10440024  0.20173253  0.43413920    -1.10600
O44         O  0.19909918  0.20249540  0.41646276    -0.67200
Ni45       Ni  0.15693993  0.22738505  0.45628453     1.26300
O46         O  0.07505301  0.19385304  0.52157583    -0.67500
O47         O  0.15227362  0.27665881  0.41403136    -0.79700
C48         C  0.20482847  0.26258777  0.52552944     0.83700
O49         O  0.20657856  0.25368163  0.48418904    -0.66900
Ni50       Ni  0.10539628  0.18174909  0.37441657     1.27400
Ni51       Ni  0.10238258  0.15517914  0.47788943     1.26100
H52         H  0.17999966  0.15376440  0.47892387     0.38200
O53         O  0.28405392  0.50968856  0.05270302    -0.81700
O54         O  0.21294023  0.39377769  0.20235639    -0.66400
O55         O  0.23346655  0.43854418  0.08446372    -1.13000
C56         C  0.10321169  0.51981601  0.10687338     1.05200
O57         O  0.14239845  0.37965176  0.18576341    -0.79600
O58         O  0.12049778  0.40069566  0.09614105    -0.67200
Ni59       Ni  0.29241838  0.44661870  0.06372439     1.34900
C60         C  0.12807131  0.41725717  0.05693609     0.83900
O61         O  0.27096811  0.37097573  0.14055924    -0.80200
O62         O  0.30547673  0.38392676  0.07476663    -0.90400
C63         C  0.17583692  0.37679540  0.21255408     0.83500
O64         O  0.32016647  0.45986301  0.11959161    -0.68600
O65         O  0.09222970  0.48184067  0.12320375    -0.87900
C66         C  0.30559987  0.46585909  0.15891074     0.84300
C67         C  0.29803223  0.35985856  0.11017884     1.05900
H68         H  0.18289740  0.47718867  0.16906053     0.37700
O69         O  0.17776335  0.45683774  0.14493626    -1.10600
O70         O  0.15089946  0.45260325  0.05068612    -0.67200
Ni71       Ni  0.19066797  0.48605456  0.08912072     1.26300
O72         O  0.26614354  0.45572487  0.17081045    -0.67500
O73         O  0.14348652  0.52941665  0.09601313    -0.79700
C74         C  0.25167169  0.53316986  0.03729208     0.83700
O75         O  0.21170765  0.51869989  0.03691147    -0.66900
Ni76       Ni  0.12039098  0.43140590  0.15212879     1.27400
Ni77       Ni  0.22502198  0.41489423  0.14340231     1.26100
H78         H  0.22121924  0.41687178  0.06458752     0.38200
O79         O  0.04671025  0.30276668  0.73857510    -0.81700
O80         O  0.96245381  0.44880534  0.84733645    -0.66400
O81         O  0.99139159  0.33447947  0.80609043    -1.13000
C82         C  0.86599624  0.35598102  0.71415578     1.05200
O83         O  0.89451642  0.42421051  0.86033810    -0.79600
O84         O  0.87650633  0.33585378  0.83615693    -0.67200
Ni85       Ni  0.05081750  0.31437912  0.80276227     1.34900
C86         C  0.88671579  0.29917594  0.81820323     0.83900
O87         O  0.02244724  0.38849749  0.87621944    -0.80200
O88         O  0.06004403  0.32515595  0.86662892    -0.90400
C89         C  0.92389680  0.45488368  0.86312919     0.83500
O90         O  0.07791216  0.36963621  0.78871873    -0.68600
O91         O  0.85167734  0.36899277  0.75198484    -0.87900
C92         C  0.06471161  0.40917444  0.78183764     0.84300
C93         C  0.05002766  0.35888633  0.88984441     1.05900
H94         H  0.93905534  0.41775273  0.76178397     0.37700
O95         O  0.93468526  0.39280253  0.78236515    -1.10600
O96         O  0.91193592  0.29859340  0.78431750    -0.67200
Ni97       Ni  0.95173984  0.33974045  0.75463931     1.26300
O98         O  0.02432396  0.42092876  0.78921565    -0.67500
O99         O  0.90721487  0.34709802  0.70729107    -0.79700
C100        C  0.01547489  0.28652323  0.71462272     0.83700
O101        O  0.97480492  0.28926800  0.72541890    -0.66900
Ni102      Ni  0.87589845  0.39421511  0.80590415     1.27400
Ni103      Ni  0.97966949  0.39174250  0.82795197     1.26100
H104        H  0.97806617  0.31412226  0.82769955     0.38200
O105        O  0.73667059  0.03169444  0.29609375    -0.81700
O106        O  0.83359277  0.94548633  0.45160784    -0.66400
O107        O  0.80061069  0.97402633  0.33158762    -1.13000
C108        C  0.70635927  0.85361894  0.35038422     1.05200
O109        O  0.84434220  0.87529462  0.43383065    -0.79600
O110        O  0.82925212  0.86173384  0.34367751    -0.67200
Ni111      Ni  0.79971025  0.03338072  0.30987049     1.34900
C112        C  0.81543007  0.87078948  0.30385109     0.83900
O113        O  0.86539251  0.00349137  0.39195495    -0.80200
O114        O  0.86245420  0.03975642  0.32517749    -0.90400
C115        C  0.84923482  0.90735771  0.46040468     0.83500
O116        O  0.78607588  0.06092914  0.36452887    -0.68600
O117        O  0.74339931  0.83753771  0.36432081    -0.87900
C118        C  0.77743072  0.04756870  0.40428951     0.84300
C119        C  0.88115274  0.03127986  0.36353179     1.05900
H120        H  0.75074272  0.92415088  0.41374931     0.37700
O121        O  0.77252657  0.91867068  0.39059568    -1.10600
O122        O  0.78119653  0.89503770  0.29614630    -0.67200
Ni123      Ni  0.74905698  0.93628809  0.33349838     1.26300
O124        O  0.77925992  0.00661011  0.41660037    -0.67500
O125        O  0.70085322  0.89448485  0.33885226    -0.79700
C126        C  0.71042161  0.00180379  0.28188457     0.83700
O127        O  0.72253174  0.96152077  0.28005103    -0.66900
Ni128      Ni  0.79361460  0.85959301  0.39706633     1.27400
Ni129      Ni  0.81807490  0.96183613  0.39185324     1.26100
H130        H  0.82284448  0.96031842  0.31341722     0.38200
O131        O  0.99297937  0.93058607  0.78510162    -0.81700
O132        O  0.09850482  0.77865825  0.70976900    -0.66400
O133        O  0.05906150  0.89515736  0.73111559    -1.13000
C134        C  0.96704820  0.87290306  0.60902017     1.05200
O135        O  0.11026604  0.80038213  0.63888187    -0.79600
O136        O  0.08735949  0.88538070  0.61552255    -0.67200
Ni137      Ni  0.05591952  0.91771042  0.78978586     1.34900
C138        C  0.07004772  0.92268363  0.62342926     0.83900
O139        O  0.12561054  0.83977729  0.76674672    -0.80200
O140        O  0.11850039  0.90556427  0.79893395    -0.90400
C141        C  0.11421782  0.77192534  0.67105150     0.83500
O142        O  0.04123361  0.86368318  0.82047803    -0.68600
O143        O  0.00323729  0.85646425  0.59457359    -0.87900
C144        C  0.03116429  0.82534517  0.80731197     0.84300
C145        C  0.14022519  0.87010833  0.79174001     1.05900
H146        H  0.01395212  0.81091488  0.68502728     0.37700
O147        O  0.03445441  0.83489158  0.67847606    -1.10600
O148        O  0.03695975  0.92638671  0.64900313    -0.67200
Ni149      Ni  0.00804371  0.88932525  0.69272801     1.26300
O150        O  0.03959685  0.81165541  0.76796766    -0.67500
O151        O  0.96049289  0.88166733  0.65031102    -0.79700
C152        C  0.96888251  0.94440872  0.75211614     0.83700
O153        O  0.98106777  0.94205452  0.71170482    -0.66900
Ni154      Ni  0.05630621  0.82964954  0.61912689     1.27400
Ni155      Ni  0.07949768  0.83678040  0.72304528     1.26100
H156        H  0.08039670  0.91420118  0.71608215     0.38200
O157        O  0.44451666  0.70812707  0.03138618    -0.81700
O158        O  0.30913703  0.78951968  0.90249529    -0.66400
O159        O  0.41988668  0.75781430  0.95522019    -1.13000
C160        C  0.39612361  0.88642661  0.03666305     1.05200
O161        O  0.33598635  0.85610121  0.88756520    -0.79600
O162        O  0.41680355  0.88131591  0.92059521    -0.67200
Ni163      Ni  0.43494053  0.69795661  0.96842845     1.34900
C164        C  0.45398727  0.86740715  0.93608820     0.83900
O165        O  0.36723017  0.72611381  0.88530806    -0.80200
O166        O  0.42550533  0.68320419  0.90635167    -0.90400
C167        C  0.30556990  0.82724341  0.88315321     0.83500
O168        O  0.37737137  0.67554191  0.98207414    -0.68600
O169        O  0.37770716  0.90022014  0.00007193    -0.87900
C170        C  0.33851860  0.69184382  0.98171506     0.84300
C171        C  0.39396121  0.69429166  0.87914667     1.05900
H172        H  0.33812541  0.81266529  0.99026196     0.37700
O173        O  0.36273805  0.81734100  0.97026936    -1.10600
O174        O  0.45721275  0.83825188  0.96780694    -0.67200
Ni175      Ni  0.41584863  0.80084241  0.00133905     1.26300
O176        O  0.32979219  0.73132131  0.96746221    -0.67500
O177        O  0.40965195  0.84673001  0.04432691    -0.79700
C178        C  0.46580703  0.73901835  0.05029206     0.83700
O179        O  0.46608161  0.77857419  0.03458866    -0.66900
Ni180      Ni  0.35794453  0.87579969  0.94474560     1.27400
Ni181      Ni  0.36407167  0.77126715  0.92826951     1.26100
H182        H  0.44186432  0.76780984  0.93395460     0.38200
O183        O  0.21579561  0.46416288  0.58812368    -0.81700
O184        O  0.30182139  0.58282764  0.72264840    -0.66400
O185        O  0.27058436  0.53409870  0.61103404    -1.13000
C186        C  0.39739128  0.44976874  0.63971905     1.05200
O187        O  0.36541180  0.59920889  0.68910665    -0.79600
O188        O  0.38499282  0.56589368  0.60527280    -0.67200
Ni189      Ni  0.21062668  0.52732177  0.59308406     1.34900
C190        C  0.37482274  0.54315118  0.57118431     0.83900
O191        O  0.23710880  0.60284731  0.66309493    -0.80200
O192        O  0.20119515  0.58997191  0.59816641    -0.90400
C193        C  0.33972853  0.60137546  0.72294862     0.83500
O194        O  0.18515059  0.51790474  0.65093543    -0.68600
O195        O  0.41161210  0.48859878  0.64830733    -0.87900
C196        C  0.20160812  0.51049548  0.68986080     0.84300
C197        C  0.20918561  0.61360944  0.63227955     1.05900
H198        H  0.32752845  0.49908285  0.69709914     0.37700
O199        O  0.32973019  0.51743866  0.67001229    -1.10600
O200        O  0.34924884  0.51010028  0.57468857    -0.67200
Ni201      Ni  0.31112221  0.48530990  0.62008747     1.26300
O202        O  0.24239798  0.51904165  0.69968627    -0.67500
O203        O  0.35626574  0.44092119  0.63159190    -0.79700
C204        C  0.24691588  0.44043322  0.57288816     0.83700
O205        O  0.28721760  0.45247476  0.57239313    -0.66900
Ni206      Ni  0.38692668  0.54356909  0.66714560     1.27400
Ni207      Ni  0.28295251  0.55927123  0.66723529     1.26100
H208        H  0.28306547  0.55418391  0.58862792     0.38200
O209        O  0.48955901  0.53635712  0.22072804    -0.81700
O210        O  0.58532293  0.68551397  0.29896422    -0.66400
O211        O  0.55270751  0.56809911  0.27862187    -1.13000
C212        C  0.46441889  0.58386881  0.40416466     1.05200
O213        O  0.59977386  0.66974195  0.37054999    -0.79600
O214        O  0.58578963  0.57795085  0.38930610    -0.67200
Ni215      Ni  0.55241279  0.54731866  0.21950517     1.34900
C216        C  0.57119058  0.53899085  0.38166506     0.83900
O217        O  0.61685157  0.62633205  0.24409840    -0.80200
O218        O  0.61563933  0.55914973  0.21467516    -0.90400
C219        C  0.60079630  0.69676964  0.33638697     0.83500
O220        O  0.54122174  0.60240927  0.18818306    -0.68600
O221        O  0.50167419  0.59940049  0.41753775    -0.87900
C222        C  0.53055590  0.64067226  0.20109503     0.84300
C223        C  0.63448582  0.59659619  0.22056947     1.05900
H224        H  0.50487405  0.64925006  0.32667114     0.37700
O225        O  0.52656720  0.62590523  0.33265978    -1.10600
O226        O  0.53521824  0.53255416  0.35951534    -0.67200
Ni227      Ni  0.50180284  0.57060184  0.31760629     1.26300
O228        O  0.52981967  0.65028892  0.24254243    -0.67500
O229        O  0.45603851  0.57479665  0.36285528    -0.79700
C230        C  0.46211696  0.52291198  0.25063628     0.83700
O231        O  0.47278328  0.52005699  0.29247159    -0.66900
Ni232      Ni  0.55064424  0.63175973  0.39116935     1.27400
Ni233      Ni  0.57063248  0.62664396  0.28752473     1.26100
H234        H  0.57533723  0.54997005  0.29325140     0.38200
O235        O  0.69266130  0.22183313  0.46358367    -0.81700
O236        O  0.55294723  0.33564081  0.55303415    -0.66400
O237        O  0.66456494  0.28964978  0.51847001    -1.13000
C238        C  0.64896283  0.20552175  0.65145201     1.05200
O239        O  0.58535181  0.35077902  0.61716689    -0.79600
O240        O  0.67240424  0.32378096  0.62937657    -0.67200
Ni241      Ni  0.67930603  0.28446121  0.45693342     1.34900
C242        C  0.70791819  0.30358872  0.61873629     0.83900
O243        O  0.60810233  0.36015932  0.48727412    -0.80200
O244        O  0.66754258  0.34718938  0.44467438    -0.90400
C245        C  0.55061680  0.35063009  0.59225742     0.83500
O246        O  0.62148233  0.26976680  0.43540919    -0.68600
O247        O  0.64036403  0.24454326  0.66438066    -0.87900
C248        C  0.58373361  0.26465922  0.45366629     0.84300
C249        C  0.63534192  0.37183544  0.45668463     1.05900
H250        H  0.58421788  0.25256855  0.57995760     0.37700
O251        O  0.61020809  0.27143590  0.58104622    -1.10600
O252        O  0.70618379  0.26782029  0.59741458    -0.67200
Ni253      Ni  0.66045927  0.24018583  0.56163382     1.26300
O254        O  0.57548352  0.27536700  0.49409334    -0.67500
O255        O  0.65403595  0.19600306  0.60984015    -0.79700
C256        C  0.70911290  0.19700630  0.49507770     0.83700
O257        O  0.70719410  0.20627131  0.53648584    -0.66900
Ni258      Ni  0.61447333  0.29729485  0.63833309     1.27400
Ni259      Ni  0.60851135  0.31438966  0.53321416     1.26100
H260        H  0.68651298  0.31009864  0.52948034     0.38200
O261        O  0.77031942  0.95655327  0.82719956    -0.81700
O262        O  0.66075997  0.04199815  0.97328168    -0.66400
O263        O  0.70389393  0.01083199  0.85916195    -1.13000
C264        C  0.79167735  0.13915188  0.87594515     1.05200
O265        O  0.64533963  0.10554309  0.93876032    -0.79600
O266        O  0.67417813  0.12742627  0.85490447    -0.67200
Ni267      Ni  0.70742902  0.95139319  0.84118127     1.34900
C268        C  0.69109845  0.11473922  0.81844621     0.83900
O269        O  0.63538694  0.97951856  0.91671917    -0.80200
O270        O  0.64439404  0.94203429  0.85357158    -0.90400
C271        C  0.64332347  0.08030711  0.97367238     0.83500
O272        O  0.72218774  0.92479677  0.89851209    -0.68600
O273        O  0.75457553  0.15234853  0.89133660    -0.87900
C274        C  0.72960529  0.93971973  0.93744036     0.84300
C275        C  0.62128266  0.95257700  0.88773683     1.05900
H276        H  0.74575174  0.06533897  0.94026388     0.37700
O277        O  0.72549233  0.06893036  0.91495398    -1.10600
O278        O  0.72411328  0.08893041  0.81847709    -0.67200
Ni279      Ni  0.75375267  0.05160330  0.86190461     1.26300
O280        O  0.72124774  0.98011233  0.94748089    -0.67500
O281        O  0.79901822  0.09829160  0.86612659    -0.79700
C282        C  0.79325926  0.98780392  0.80886646     0.83700
O283        O  0.78242260  0.02829988  0.81127021    -0.66900
Ni284      Ni  0.70052321  0.12686275  0.91426523     1.27400
Ni285      Ni  0.68160379  0.02318660  0.91668558     1.26100
H286        H  0.68232061  0.02359799  0.83829540     0.38200
O287        O  0.93545997  0.78661809  0.99092827    -0.81700
O288        O  0.79374329  0.69748297  0.10951178    -0.66400
O289        O  0.90592571  0.73078602  0.06089986    -1.13000
C290        C  0.88120341  0.60752401  0.96959239     1.05200
O291        O  0.82382765  0.63132561  0.12039509    -0.79600
O292        O  0.90447946  0.60866586  0.08675837    -0.67200
Ni293      Ni  0.92471483  0.79050501  0.05511875     1.34900
C294        C  0.94117584  0.62147922  0.06991204     0.83900
O295        O  0.85296612  0.75953026  0.13288319    -0.80200
O296        O  0.91431691  0.79996053  0.11877835    -0.90400
C297        C  0.79177359  0.65806268  0.12584403     0.83500
O298        O  0.86860707  0.81625923  0.04151336    -0.68600
O299        O  0.86447294  0.59226896  0.00617842    -0.87900
C300        C  0.82888863  0.80275348  0.03711988     0.84300
C301        C  0.88121858  0.78898087  0.14365543     1.05900
H302        H  0.82271630  0.67949038  0.02036556     0.37700
O303        O  0.84786753  0.67393081  0.04026417    -1.10600
O304        O  0.94260303  0.65172796  0.03944885    -0.67200
Ni305      Ni  0.90066036  0.69170721  0.01053266     1.26300
O306        O  0.81751264  0.76255750  0.04766095    -0.67500
O307        O  0.89357556  0.64813874  0.96389634    -0.79700
C308        C  0.95127415  0.75596410  0.96696973     0.80100
O309        O  0.95076626  0.71555072  0.97972632    -0.66900
Ni310      Ni  0.84504494  0.61419926  0.06259847     1.27400
Ni311      Ni  0.84932385  0.71756322  0.08569885     1.26100
H312        H  0.92719260  0.71757969  0.08183908     0.38200
C313        C  0.73315859  0.86319722  0.97302708    -0.10000
C314        C  0.74946317  0.90719563  0.97090888     0.06200
C315        C  0.78837296  0.91666496  0.99522118    -0.03700
C316        C  0.81119301  0.88254106  0.01874491    -0.08200
C317        C  0.79704409  0.83764373  0.01835093     0.05300
C318        C  0.75613454  0.82875209  0.99663628    -0.03200
Br319      Br  0.73112436  0.77035092  0.99554486    -0.02900
H320        H  0.70304904  0.85517520  0.95464694     0.09200
H321        H  0.84181944  0.89130370  0.03578106     0.07300
Br322      Br  0.81521983  0.97437384  0.99254681    -0.03300
C323        C  0.62517075  0.17638383  0.72586115    -0.10000
C324        C  0.65363338  0.17216615  0.68874479     0.06200
C325        C  0.69053251  0.14383321  0.69315555    -0.03700
C326        C  0.70044126  0.12367505  0.73513520    -0.08200
C327        C  0.67431225  0.13131770  0.77360998     0.05300
C328        C  0.63505229  0.15658769  0.76791169    -0.03200
Br329      Br  0.59399256  0.16718638  0.81570189    -0.02900
H330        H  0.59616020  0.19764171  0.72281481     0.09200
H331        H  0.73038417  0.10378467  0.73797294     0.07300
Br332      Br  0.73123290  0.13537071  0.64476827    -0.03300
C333        C  0.60216069  0.46282242  0.37136905    -0.10000
C334        C  0.59562801  0.49905771  0.39947807     0.06200
C335        C  0.60769257  0.49414860  0.44535610    -0.03700
C336        C  0.62292990  0.45304814  0.46272284    -0.08200
C337        C  0.62792292  0.41638263  0.43500641     0.05300
C338        C  0.61877320  0.42205589  0.38856567    -0.03200
Br339      Br  0.62449653  0.37400772  0.34813084    -0.02900
H340        H  0.59308856  0.46585178  0.33603032     0.09200
H341        H  0.62945573  0.44923422  0.49856354     0.07300
Br342      Br  0.59969466  0.54098948  0.48684782    -0.03300
C343        C  0.69416033  0.65198349  0.20556457    -0.10000
C344        C  0.67716939  0.60905936  0.19814695     0.06200
C345        C  0.69966412  0.58216964  0.16744549    -0.03700
C346        C  0.73736994  0.59873120  0.14512062    -0.08200
C347        C  0.75278664  0.64215361  0.15155771     0.05300
C348        C  0.73090209  0.66872568  0.18237223    -0.03200
Br349      Br  0.75019134  0.72766016  0.19550818    -0.02900
H350        H  0.67827975  0.67364944  0.22901309     0.09200
H351        H  0.75406319  0.57788919  0.12142845     0.07300
Br352      Br  0.68057961  0.52358542  0.15259021    -0.03300
C353        C  0.51061295  0.39766494  0.64544876    -0.10000
C354        C  0.50860272  0.36980668  0.60856509     0.06200
C355        C  0.46645093  0.36038329  0.58929266    -0.03700
C356        C  0.42881025  0.38388797  0.60265091    -0.08200
C357        C  0.43221888  0.41561867  0.63601722     0.05300
C358        C  0.47290441  0.41972746  0.65984138    -0.03200
Br359      Br  0.47954087  0.45527010  0.71224529    -0.02900
H360        H  0.54192489  0.40331603  0.66271149     0.09200
H361        H  0.39741467  0.37895153  0.58529556     0.07300
Br362      Br  0.45737308  0.31514565  0.54595337    -0.03300
C363        C  0.42176820  0.53095497  0.45258693    -0.10000
C364        C  0.43192526  0.57488815  0.44050605     0.06200
C365        C  0.42100119  0.60855426  0.47059347    -0.03700
C366        C  0.40217613  0.59794761  0.51262752    -0.08200
C367        C  0.39345191  0.55380655  0.52566868     0.05300
C368        C  0.40290566  0.52009208  0.49455582    -0.03200
Br369      Br  0.39587913  0.45787670  0.50846551    -0.02900
H370        H  0.43151027  0.50461311  0.43067921     0.09200
H371        H  0.39472236  0.62433025  0.53534432     0.07300
Br372      Br  0.43240805  0.66976892  0.45586479    -0.03300
C373        C  0.52793967  0.70143360  0.08829989    -0.10000
C374        C  0.48952552  0.72694175  0.09204423     0.06200
C375        C  0.46867777  0.72979725  0.13412505    -0.03700
C376        C  0.48410395  0.70369670  0.17086967    -0.08200
C377        C  0.51995283  0.67450071  0.16573354     0.05300
C378        C  0.54355509  0.67562185  0.12466849    -0.03200
Br379      Br  0.59669791  0.64191653  0.11504322    -0.02900
H380        H  0.54419967  0.69928745  0.05599816     0.09200
H381        H  0.46624979  0.70398095  0.20238003     0.07300
Br382      Br  0.41669852  0.76560661  0.14141115    -0.03300
C383        C  0.50230928  0.93351448  0.92909669    -0.10000
C384        C  0.49528707  0.88897323  0.91923114     0.06200
C385        C  0.52881331  0.86609016  0.89647136    -0.03700
C386        C  0.56855932  0.88788703  0.88416153    -0.08200
C387        C  0.57652131  0.93212942  0.89576815     0.05300
C388        C  0.54238334  0.95492737  0.91845716    -0.03200
Br389      Br  0.54753863  0.01536814  0.93661502    -0.02900
H390        H  0.47692097  0.95143528  0.94681758     0.09200
H391        H  0.59411621  0.86951901  0.86722540     0.07300
Br392      Br  0.52194027  0.80504504  0.88195710    -0.03300
C393        C  0.37832607  0.69251390  0.79782916    -0.10000
C394        C  0.38595202  0.66893416  0.83858998     0.06200
C395        C  0.37741015  0.62305088  0.84127428    -0.03700
C396        C  0.36201962  0.60152070  0.80310842    -0.08200
C397        C  0.35451418  0.62528367  0.76247639     0.05300
C398        C  0.36254108  0.67105991  0.75994746    -0.03200
Br399      Br  0.34836348  0.70610356  0.70687698    -0.02900
H400        H  0.38305108  0.72811373  0.79598290     0.09200
H401        H  0.35536780  0.56624200  0.80524864     0.07300
Br402      Br  0.38150753  0.58940043  0.89704925    -0.03300
C403        C  0.96398881  0.80883685  0.85075054    -0.10000
C404        C  0.00786437  0.79723704  0.84057833     0.06200
C405        C  0.03170480  0.76881928  0.87046682    -0.03700
C406        C  0.01197237  0.75364909  0.91062604    -0.08200
C407        C  0.96917782  0.76783820  0.92218531     0.05300
C408        C  0.94457835  0.79454822  0.89119408    -0.03200
Br409      Br  0.88468431  0.81319565  0.90268630    -0.02900
H410        H  0.94575188  0.83151941  0.82844111     0.09200
H411        H  0.03109603  0.73298492  0.93411787     0.07300
Br412      Br  0.09281621  0.75416840  0.86021099    -0.03300
C413        C  0.86934168  0.01071047  0.78587593    -0.10000
C414        C  0.83629805  0.97750006  0.78773260     0.06200
C415        C  0.84663425  0.93485116  0.77237558    -0.03700
C416        C  0.89006646  0.92536254  0.75950959    -0.08200
C417        C  0.92327967  0.95779418  0.76086185     0.05300
C418        C  0.91258887  0.00108622  0.77245443    -0.03200
Br419      Br  0.95620197  0.04748716  0.77119265    -0.02900
H420        H  0.86215262  0.04394810  0.79655843     0.09200
H421        H  0.89822680  0.89218834  0.74920568     0.07300
Br422      Br  0.80344063  0.88834254  0.76689865    -0.03300
C423        C  0.11509880  0.69429173  0.64822192    -0.10000
C424        C  0.13869773  0.73137839  0.66262504     0.06200
C425        C  0.18534555  0.73055161  0.66434951    -0.03700
C426        C  0.20791633  0.69225469  0.65260768    -0.08200
C427        C  0.18446364  0.65486004  0.63828147     0.05300
C428        C  0.13759707  0.65601651  0.63605169    -0.03200
Br429      Br  0.10260979  0.60555730  0.61988843    -0.02900
H430        H  0.07906850  0.69518508  0.64637582     0.09200
H431        H  0.24392084  0.69148538  0.65505541     0.07300
Br432      Br  0.21921419  0.78083903  0.68288478    -0.03300
C433        C  0.25147896  0.88285506  0.85294662    -0.10000
C434        C  0.26542484  0.83837271  0.85634103     0.06200
C435        C  0.23894816  0.80544587  0.83683567    -0.03700
C436        C  0.19884487  0.81716554  0.81615694    -0.08200
C437        C  0.18385741  0.86141086  0.81385479     0.05300
C438        C  0.21108499  0.89466785  0.83207926    -0.03200
Br439      Br  0.19623798  0.95658660  0.82920559    -0.02900
H440        H  0.27155739  0.90859601  0.86767016     0.09200
H441        H  0.17904770  0.79088041  0.80206353     0.07300
Br442      Br  0.25554440  0.74391186  0.83557688    -0.03300
C443        C  0.65099652  0.81079527  0.30677238    -0.10000
C444        C  0.66988437  0.82131058  0.34824912     0.06200
C445        C  0.66163846  0.79359662  0.38622353    -0.03700
C446        C  0.63837787  0.75400595  0.38168232    -0.08200
C447        C  0.62212654  0.74119158  0.33960560     0.05300
C448        C  0.62673709  0.77144066  0.30206737    -0.03200
Br449      Br  0.60259372  0.76189843  0.24284323    -0.02900
H450        H  0.65727591  0.83192360  0.27740223     0.09200
H451        H  0.63396982  0.73271242  0.41127593     0.07300
Br452      Br  0.68330356  0.80774726  0.44513591    -0.03300
C453        C  0.85158471  0.87709944  0.22786726    -0.10000
C454        C  0.83843653  0.85064885  0.26520374     0.06200
C455        C  0.84479680  0.80440196  0.26379921    -0.03700
C456        C  0.86143151  0.78532423  0.22488054    -0.08200
C457        C  0.87326866  0.81144221  0.18691831     0.05300
C458        C  0.86960836  0.85799695  0.18929899    -0.03200
Br459      Br  0.88526783  0.89669585  0.13956783    -0.02900
H460        H  0.84715526  0.91269543  0.22841545     0.09200
H461        H  0.86357546  0.74954589  0.22364119     0.07300
Br462      Br  0.82706257  0.76511949  0.31236135    -0.03300
C463        C  0.86031298  0.88456277  0.54051835    -0.10000
C464        C  0.87784454  0.90129411  0.49980817     0.06200
C465        C  0.92325082  0.91088779  0.49645299    -0.03700
C466        C  0.95086103  0.90302390  0.53342665    -0.08200
C467        C  0.93411099  0.88515292  0.57409028     0.05300
C468        C  0.88825821  0.87635886  0.57787356    -0.03200
Br469      Br  0.86311851  0.84972107  0.63125276    -0.02900
H470        H  0.82516872  0.87688951  0.54283640     0.09200
H471        H  0.98608306  0.90998211  0.52997793     0.07300
Br472      Br  0.94954898  0.93236221  0.44130759    -0.03300
C473        C  0.76842957  0.16123787  0.45332399    -0.10000
C474        C  0.73175706  0.15628623  0.48143400     0.06200
C475        C  0.71425664  0.11349163  0.49005248    -0.03700
C476        C  0.73123055  0.07701855  0.46715198    -0.08200
C477        C  0.76574946  0.08283284  0.43594627     0.05300
C478        C  0.78596931  0.12520027  0.43129681    -0.03200
Br479      Br  0.83734048  0.13721188  0.39471231    -0.02900
H480        H  0.78264562  0.19384791  0.44722133     0.09200
H481        H  0.71569471  0.04484277  0.47167712     0.07300
Br482      Br  0.66495283  0.10401739  0.52962152    -0.03300
C483        C  0.14487273  0.42609307  0.76645481    -0.10000
C484        C  0.09996852  0.44073721  0.76465007     0.06200
C485        C  0.09138910  0.48286427  0.74451259    -0.03700
C486        C  0.12627342  0.50699783  0.72409105    -0.08200
C487        C  0.17019303  0.49040914  0.72306254     0.05300
C488        C  0.17939991  0.44997113  0.74564753    -0.03200
Br489      Br  0.23707504  0.42274095  0.74391746    -0.02900
H490        H  0.15334953  0.39447170  0.78239776     0.09200
H491        H  0.11852834  0.53807364  0.70659812     0.07300
Br492      Br  0.03292613  0.50825290  0.74047309    -0.03300
C493        C  0.84746917  0.25277907  0.87790110    -0.10000
C494        C  0.86830793  0.25532297  0.83574059     0.06200
C495        C  0.86980853  0.21560811  0.81060340    -0.03700
C496        C  0.84838469  0.17666292  0.82632260    -0.08200
C497        C  0.82500002  0.17536676  0.86687543     0.05300
C498        C  0.82654701  0.21362612  0.89363269    -0.03200
Br499      Br  0.80048102  0.21460420  0.95246333    -0.02900
H500        H  0.84676346  0.28166946  0.89867596     0.09200
H501        H  0.84754627  0.14804836  0.80512101     0.07300
Br502      Br  0.89712630  0.21140393  0.75255887    -0.03300
C503        C  0.93077962  0.57075662  0.91483480    -0.10000
C504        C  0.88870868  0.57407241  0.93453165     0.06200
C505        C  0.85789325  0.53934252  0.92812146    -0.03700
C506        C  0.86996473  0.50187532  0.90429497    -0.08200
C507        C  0.91293105  0.49700771  0.88660820     0.05300
C508        C  0.94330343  0.53281399  0.89147658    -0.03200
Br509      Br  0.00333506  0.53220089  0.86976330    -0.02900
H510        H  0.95519187  0.59654229  0.92019214     0.09200
H511        H  0.84552410  0.47583792  0.90058602     0.07300
Br512      Br  0.79870595  0.54047670  0.95217456    -0.03300
C513        C  0.83133033  0.31028603  0.65389237    -0.10000
C514        C  0.83114592  0.34887656  0.67901973     0.06200
C515        C  0.79299891  0.37631487  0.67638716    -0.03700
C516        C  0.75423911  0.36200594  0.65468066    -0.08200
C517        C  0.75244800  0.32094097  0.63363876     0.05300
C518        C  0.79291052  0.29652044  0.63063262    -0.03200
Br519      Br  0.79893440  0.24340238  0.59703176    -0.02900
H520        H  0.86062151  0.28933437  0.65444410     0.09200
H521        H  0.72488572  0.38277804  0.65554447     0.07300
Br522      Br  0.79170939  0.43388925  0.70229737    -0.03300
C523        C  0.13588640  0.38586246  0.98016216    -0.10000
C524        C  0.10854616  0.39584441  0.01671378     0.06200
C525        C  0.06224190  0.38895379  0.01242487    -0.03700
C526        C  0.04406629  0.37475532  0.97154787    -0.08200
C527        C  0.07127558  0.36565926  0.93463636     0.05300
C528        C  0.11776285  0.37019879  0.93974443    -0.03200
Br529      Br  0.15753839  0.35909857  0.89122000    -0.02900
H530        H  0.17148144  0.39106853  0.98276474     0.09200
H531        H  0.00824402  0.37202356  0.96811690     0.07300
Br532      Br  0.02183414  0.40230416  0.05988263    -0.03300
C533        C  0.02741997  0.54481490  0.12764567    -0.10000
C534        C  0.06540472  0.55191953  0.10075118     0.06200
C535        C  0.06298455  0.58492233  0.06625894    -0.03700
C536        C  0.02305971  0.60855681  0.05867010    -0.08200
C537        C  0.98418968  0.59947617  0.08397000     0.05300
C538        C  0.98722472  0.56710057  0.11923862    -0.03200
Br539      Br  0.93795195  0.54883699  0.15629684    -0.02900
H540        H  0.02821579  0.51993816  0.15467236     0.09200
H541        H  0.02200268  0.63277843  0.03107079     0.07300
Br542      Br  0.11109620  0.59633610  0.02548417    -0.03300
C543        C  0.35930142  0.52423401  0.17617223    -0.10000
C544        C  0.33734263  0.48569627  0.19073845     0.06200
C545        C  0.35275642  0.46295037  0.23002424    -0.03700
C546        C  0.39213273  0.47677860  0.25157862    -0.08200
C547        C  0.41628250  0.51326704  0.23437351     0.05300
C548        C  0.39780099  0.53853776  0.19777625    -0.03200
Br549      Br  0.42324555  0.59300615  0.17466227    -0.02900
H550        H  0.34742892  0.54236818  0.14638474     0.09200
H551        H  0.40522583  0.45743976  0.27998024     0.07300
Br552      Br  0.32386450  0.41044119  0.25255265    -0.03300
C553        C  0.28097580  0.63531937  0.96548827    -0.10000
C554        C  0.30305351  0.66120490  0.99747029     0.06200
C555        C  0.30181411  0.64737887  0.04308204    -0.03700
C556        C  0.28142111  0.60717220  0.05570939    -0.08200
C557        C  0.26207312  0.57972034  0.02343642     0.05300
C558        C  0.26071982  0.59478274  0.97812944    -0.03200
Br559      Br  0.23754943  0.55809124  0.93183575    -0.02900
H560        H  0.28312987  0.64451867  0.93003746     0.09200
H561        H  0.28318986  0.59591214  0.09065772     0.07300
Br562      Br  0.33205197  0.68018804  0.08850948    -0.03300
C563        C  0.23613651  0.33684204  0.50681304    -0.10000
C564        C  0.21745234  0.30752923  0.53931256     0.06200
C565        C  0.20792736  0.32342600  0.58269908    -0.03700
C566        C  0.21770629  0.36714665  0.59242414    -0.08200
C567        C  0.23638195  0.39565577  0.55997248     0.05300
C568        C  0.24543070  0.38069231  0.51685214    -0.03200
Br569      Br  0.26736944  0.41983959  0.47004336    -0.02900
H570        H  0.24281569  0.32603538  0.47307552     0.09200
H571        H  0.21070887  0.37908299  0.62572210     0.07300
Br572      Br  0.17998836  0.28946236  0.63047715    -0.03300
C573        C  0.02194496  0.21879216  0.66941291    -0.10000
C574        C  0.02700850  0.26475573  0.67226694     0.06200
C575        C  0.04536368  0.28880867  0.63549299    -0.03700
C576        C  0.05893415  0.26665769  0.59698821    -0.08200
C577        C  0.05635019  0.22029249  0.59516397     0.05300
C578        C  0.03773294  0.19643236  0.63201849    -0.03200
Br579      Br  0.03797157  0.13292259  0.63524830    -0.02900
H580        H  0.00847788  0.19987575  0.69770095     0.09200
H581        H  0.07514288  0.28532247  0.57008104     0.07300
Br582      Br  0.05528171  0.35151826  0.63764627    -0.03300
C583        C  0.97348972  0.08097182  0.43527529    -0.10000
C584        C  0.00103397  0.10033262  0.40245491     0.06200
C585        C  0.98789368  0.09837131  0.35662446    -0.03700
C586        C  0.94930249  0.07532665  0.34457149    -0.08200
C587        C  0.92221682  0.05506687  0.37736418     0.05300
C588        C  0.93417820  0.05938081  0.42352775    -0.03200
Br589      Br  0.89738746  0.04076602  0.47345073    -0.02900
H590        H  0.98218966  0.08320709  0.47062613     0.09200
H591        H  0.94011753  0.07385622  0.30930004     0.07300
Br592      Br  0.01852312  0.12953103  0.30887335    -0.03300
C593        C  0.19795813  0.30063221  0.31403308    -0.10000
C594        C  0.15917408  0.30688985  0.33902634     0.06200
C595        C  0.12710997  0.33755138  0.32324701    -0.03700
C596        C  0.13347780  0.36049513  0.28223056    -0.08200
C597        C  0.17141196  0.35292435  0.25624412     0.05300
C598        C  0.20432801  0.32323961  0.27287219    -0.03200
Br599      Br  0.25548892  0.30757411  0.23837354    -0.02900
H600        H  0.22181832  0.27550947  0.32495256     0.09200
H601        H  0.10818389  0.38357250  0.27006352     0.07300
Br602      Br  0.07238338  0.34584180  0.35459623    -0.03300
C603        C  0.13286898  0.97122623  0.59678194    -0.10000
C604        C  0.08692863  0.96395442  0.60204600     0.06200
C605        C  0.05685667  0.99805320  0.58916334    -0.03700
C606        C  0.07274729  0.03800055  0.57207297    -0.08200
C607        C  0.11842253  0.04607832  0.56726547     0.05300
C608        C  0.14889022  0.01222027  0.57992311    -0.03200
Br609      Br  0.21197134  0.01932341  0.57375209    -0.02900
H610        H  0.15631498  0.94542676  0.60673904     0.09200
H611        H  0.04857207  0.06326856  0.56249250     0.07300
Br612      Br  0.99304737  0.99316657  0.59233470    -0.03300
C613        C  0.44170651  0.94818258  0.06022851    -0.10000
C614        C  0.40514795  0.92066377  0.06912274     0.06200
C615        C  0.37280300  0.93363846  0.09996364    -0.03700
C616        C  0.37709442  0.97437745  0.12089384    -0.08200
C617        C  0.41334010  0.00239919  0.11124509     0.05300
C618        C  0.44602546  0.98884326  0.08083296    -0.03200
Br619      Br  0.49464915  0.02625497  0.06239034    -0.02900
H620        H  0.46567549  0.93914204  0.03500776     0.09200
H621        H  0.35216768  0.98415606  0.14480684     0.07300
Br622      Br  0.32184711  0.89744009  0.11312816    -0.03300
C623        C  0.24170398  0.12054553  0.34150550    -0.10000
C624        C  0.24162295  0.15642798  0.37046501     0.06200
C625        C  0.28188783  0.18082099  0.37589742    -0.03700
C626        C  0.31860411  0.17202780  0.34895082    -0.08200
C627        C  0.31665480  0.13917849  0.31683958     0.05300
C628        C  0.27869463  0.11155582  0.31515982    -0.03200
Br629      Br  0.27502364  0.06094137  0.27745873    -0.02900
H630        H  0.21224975  0.10021197  0.33793703     0.09200
H631        H  0.34793942  0.19274689  0.35134711     0.07300
Br632      Br  0.29007272  0.22840350  0.41693070    -0.03300
C633        C  0.29740772  0.27748380  0.11663509    -0.10000
C634        C  0.32170571  0.31711327  0.11835895     0.06200
C635        C  0.36480477  0.31583289  0.13744971    -0.03700
C636        C  0.38248359  0.27569592  0.15511515    -0.08200
C637        C  0.35790900  0.23596572  0.15414560     0.05300
C638        C  0.31496711  0.23728481  0.13403282    -0.03200
Br639      Br  0.27618928  0.18670660  0.13416904    -0.02900
H640        H  0.26356540  0.27822315  0.10371807     0.09200
H641        H  0.41524392  0.27577146  0.17063874     0.07300
Br642      Br  0.39909509  0.36896453  0.14345590    -0.03300
C643        C  0.58594675  0.12842781  0.00645511    -0.10000
C644        C  0.61942073  0.09616922  0.01327416     0.06200
C645        C  0.63112176  0.08264519  0.05769500    -0.03700
C646        C  0.60915529  0.10114367  0.09386592    -0.08200
C647        C  0.57515756  0.13238172  0.08676617     0.05300
C648        C  0.56355865  0.14616227  0.04278312    -0.03200
Br649      Br  0.51657672  0.18798184  0.03098933    -0.02900
H650        H  0.57656183  0.13942818  0.97265073     0.09200
H651        H  0.61771830  0.09008233  0.12786858     0.07300
Br652      Br  0.67715453  0.04013637  0.07175846    -0.03300
C653        C  0.52270032  0.27577549  0.39800217    -0.10000
C654        C  0.54886241  0.24621115  0.42442151     0.06200
C655        C  0.55159222  0.20169709  0.41199006    -0.03700
C656        C  0.53117334  0.18813754  0.37220714    -0.08200
C657        C  0.50804587  0.21842958  0.34380901     0.05300
C658        C  0.50237356  0.26222129  0.35783242    -0.03200
Br659      Br  0.47330311  0.30608269  0.32003336    -0.02900
H660        H  0.52162262  0.31048138  0.40629662     0.09200
H661        H  0.53596624  0.15434854  0.36182269     0.07300
Br662      Br  0.58745146  0.15954900  0.44548245    -0.03300
C663        C  0.64242295  0.00283169  0.23176035    -0.10000
C664        C  0.66366011  0.01476374  0.27195730     0.06200
C665        C  0.64045347  0.04173907  0.30200439    -0.03700
C666        C  0.59966950  0.06053180  0.28926907    -0.08200
C667        C  0.58052677  0.05245478  0.24718470     0.05300
C668        C  0.60093274  0.02137476  0.21932195    -0.03200
Br669      Br  0.57530055  0.00620681  0.16253366    -0.02900
H670        H  0.65914744  0.98116214  0.20889738     0.09200
H671        H  0.58419811  0.08403951  0.31119238     0.07300
Br672      Br  0.66293108  0.05492342  0.36087410    -0.03300
loop_ 
_geom_bond_atom_site_label_1 
_geom_bond_atom_site_label_2 
_geom_bond_distance 
_geom_bond_site_symmetry_2 
_ccdc_geom_bond_type 
O1           Ni7   1.928       .  S
O1           C22   1.274       .  A
O2          Ni25   1.881       .  S
O2           C11   1.263       .  A
O3           Ni7   1.894       .  S
O3          Ni25   1.894       .  S
O3          Ni19   1.919       .  S
O3           H26   0.965       .  S
C4           O21   1.279       .  A
C4           O13   1.275       .  A
C4          C627   1.477       .  S
O5          Ni24   1.940       .  S
O5           C11   1.276       .  A
O6          Ni24   1.923       .  S
O6            C8   1.275       .  A
Ni7          O10   1.931       .  S
Ni7          O12   1.901       .  S
C8           O18   1.281       .  A
C8          C637   1.499       .  S
O9          Ni25   1.900       .  S
O9           C15   1.269       .  A
O10          C15   1.278       .  A
C11         C617   1.468       .  S
O12          C14   1.267       .  A
O13         Ni24   1.922       .  S
C14          O20   1.276       .  A
C14         C667   1.476       .  S
C15         C647   1.459       .  S
H16          O17   0.966       .  S
O17         Ni25   1.895       .  S
O17         Ni19   1.897       .  S
O17         Ni24   1.900       .  S
O18         Ni19   1.958       .  S
Ni19         O23   1.921       .  S
Ni19         O21   1.919       .  S
O20         Ni25   1.941       .  S
C22          O23   1.274       .  A
C22         C657   1.481       .  S
O27         Ni33   1.926       .  S
O27          C48   1.272       .  A
O28         Ni51   1.901       .  S
O28          C37   1.274       .  A
O29         Ni33   1.889       .  S
O29         Ni51   1.881       .  S
O29         Ni45   1.918       .  S
O29          H52   0.965       .  S
C30          O47   1.284       .  A
C30          O39   1.279       .  A
C30         C594   1.463       .  S
O31         Ni50   1.935       .  S
O31          C37   1.275       .  A
O32         Ni50   1.928       .  S
O32          C34   1.273       .  A
Ni33         O36   1.934       .  S
Ni33         O38   1.906       .  S
C34          O44   1.261       .  A
C34         C624   1.490       .  S
O35         Ni51   1.896       .  S
O35          C41   1.273       .  A
O36          C41   1.277       .  A
C37         C584   1.484       .  S
O38          C40   1.269       .  A
O39         Ni50   1.925       .  S
C40          O46   1.284       .  A
C40         C577   1.479       .  S
C41         C607   1.479       .  S
H42          O43   0.966       .  S
O43         Ni51   1.888       .  S
O43         Ni45   1.880       .  S
O43         Ni50   1.891       .  S
O44         Ni45   1.909       .  S
Ni45         O49   1.886       .  S
Ni45         O47   1.923       .  S
O46         Ni51   1.956       .  S
C48          O49   1.266       .  A
C48         C564   1.477       .  S
O53         Ni59   1.939       .  S
O53          C74   1.278       .  A
O54         Ni77   1.885       .  S
O54          C63   1.263       .  A
O55         Ni59   1.894       .  S
O55         Ni77   1.891       .  S
O55         Ni71   1.935       .  S
O55          H78   0.965       .  S
C56          O73   1.286       .  A
C56          O65   1.276       .  A
C56         C534   1.500       .  S
O57         Ni76   1.943       .  S
O57          C63   1.277       .  A
O58         Ni76   1.927       .  S
O58          C60   1.276       .  A
Ni59         O62   1.951       .  S
Ni59         O64   1.903       .  S
C60          O70   1.278       .  A
C60         C524   1.490       .  S
O61         Ni77   1.918       .  S
O61          C67   1.272       .  A
O62          C67   1.282       .  A
C63         C597   1.473       .  S
O64          C66   1.269       .  A
O65         Ni76   1.919       .  S
C66          O72   1.275       .  A
C66         C544   1.476       .  S
C67         C634   1.486       .  S
H68          O69   0.969       .  S
O69         Ni77   1.904       .  S
O69         Ni71   1.898       .  S
O69         Ni76   1.898       .  S
O70         Ni71   1.948       .  S
Ni71         O75   1.925       .  S
Ni71         O73   1.946       .  S
O72         Ni77   1.936       .  S
C74          O75   1.278       .  A
C74         C557   1.487       .  S
O79         Ni85   1.951       .  S
O79         C100   1.279       .  A
O80        Ni103   1.905       .  S
O80          C89   1.269       .  A
O81         Ni85   1.890   1_655  S
O81        Ni103   1.898       .  S
O81         Ni97   1.932       .  S
O81         H104   0.965       .  S
C82          O99   1.286       .  A
C82          O91   1.279       .  A
C82         C514   1.492       .  S
O83        Ni102   1.953       .  S
O83          C89   1.283       .  A
O84        Ni102   1.955       .  S
O84          C86   1.281       .  A
Ni85         O88   1.951       .  S
Ni85         O90   1.893       .  S
C86          O96   1.266       .  A
C86         C494   1.515       .  S
O87        Ni103   1.917   1_455  S
O87          C93   1.274       .  A
O88          C93   1.283       .  A
C89         C507   1.506       .  S
O90          C92   1.268       .  A
O91        Ni102   1.930       .  S
C92          O98   1.287       .  A
C92         C484   1.507       .  S
C93         C527   1.490       .  S
H94          O95   0.966       .  S
O95        Ni103   1.904       .  S
O95         Ni97   1.895       .  S
O95        Ni102   1.906       .  S
O96         Ni97   1.925       .  S
Ni97        O101   1.908       .  S
Ni97         O99   1.940       .  S
O98        Ni103   1.967   1_455  S
C100        O101   1.269   1_455  A
C100        C574   1.480       .  S
O105       Ni111   1.935       .  S
O105        C126   1.277       .  A
O106       Ni129   1.883       .  S
O106        C115   1.263       .  A
O107       Ni111   1.887   1_565  S
O107       Ni129   1.887       .  S
O107       Ni123   1.923       .  S
O107        H130   0.963       .  S
C108        O125   1.281       .  A
C108        O117   1.275       .  A
C108        C444   1.469       .  S
O109       Ni128   1.934       .  S
O109        C115   1.274       .  A
O110       Ni128   1.921       .  S
O110        C112   1.273       .  A
Ni111       O114   1.946       .  S
Ni111       O116   1.893       .  S
C112        O122   1.278       .  A
C112        C454   1.490       .  S
O113       Ni129   1.898   1_545  S
O113        C119   1.268       .  A
O114        C119   1.285       .  A
C115        C464   1.453       .  S
O116        C118   1.266       .  A
O117       Ni128   1.918       .  S
C118        O124   1.280       .  A
C118        C477   1.485       .  S
C119        C587   1.488       .  S
H120        O121   0.971       .  S
O121       Ni129   1.891       .  S
O121       Ni123   1.893       .  S
O121       Ni128   1.897       .  S
O122       Ni123   1.953       .  S
Ni123       O127   1.909       .  S
Ni123       O125   1.926       .  S
O124       Ni129   1.949   1_545  S
C126        O127   1.272   1_545  A
C126        C664   1.483       .  S
O131       Ni137   1.934   1_655  S
O131        C152   1.274       .  A
O132       Ni155   1.898       .  S
O132        C141   1.269       .  A
O133       Ni137   1.892       .  S
O133       Ni155   1.889       .  S
O133       Ni149   1.913       .  S
O133        H156   0.965       .  S
C134        O151   1.279       .  A
C134        O143   1.278   1_655  A
C134        C467   1.467       .  S
O135       Ni154   1.925       .  S
O135        C141   1.271       .  A
O136       Ni154   1.925       .  S
O136        C138   1.269       .  A
Ni137       O140   1.931       .  S
Ni137       O142   1.899       .  S
C138        O148   1.263       .  A
C138        C604   1.474       .  S
O139       Ni155   1.894       .  S
O139        C145   1.271       .  A
O140        C145   1.278       .  A
C141        C424   1.457       .  S
O142        C144   1.268       .  A
O143       Ni154   1.917       .  S
C144        O150   1.278       .  A
C144        C404   1.466       .  S
C145        C437   1.481       .  S
H146        O147   0.967       .  S
O147       Ni155   1.887       .  S
O147       Ni149   1.885       .  S
O147       Ni154   1.898       .  S
O148       Ni149   1.905       .  S
Ni149       O153   1.889   1_455  S
Ni149       O151   1.915   1_455  S
O150       Ni155   1.940       .  S
C152        O153   1.262       .  A
C152        C417   1.456       .  S
O157       Ni163   1.923   1_554  S
O157        C178   1.272       .  A
O158       Ni181   1.889       .  S
O158        C167   1.265       .  A
O159       Ni163   1.892       .  S
O159       Ni181   1.891       .  S
O159       Ni175   1.919   1_556  S
O159        H182   0.961       .  S
C160        O177   1.279       .  A
C160        O169   1.274       .  A
C160        C614   1.457       .  S
O161       Ni180   1.927       .  S
O161        C167   1.271       .  A
O162       Ni180   1.920       .  S
O162        C164   1.271       .  A
Ni163       O166   1.928       .  S
Ni163       O168   1.900       .  S
C164        O174   1.274       .  A
C164        C384   1.486       .  S
O165       Ni181   1.897       .  S
O165        C171   1.270       .  A
O166        C171   1.278       .  A
C167        C434   1.473       .  S
O168        C170   1.267       .  A
O169       Ni180   1.910   1_554  S
C170        O176   1.280       .  A
C170        C554   1.481       .  S
C171        C394   1.464       .  S
H172        O173   0.960       .  S
O173       Ni181   1.896       .  S
O173       Ni175   1.896   1_556  S
O173       Ni180   1.905       .  S
O174       Ni175   1.942   1_556  S
Ni175       O179   1.908       .  S
Ni175       O177   1.921       .  S
O176       Ni181   1.952       .  S
C178        O179   1.269       .  A
C178        C374   1.462       .  S
O183       Ni189   1.923       .  S
O183        C204   1.272       .  A
O184       Ni207   1.894       .  S
O184        C193   1.269       .  A
O185       Ni189   1.887       .  S
O185       Ni207   1.888       .  S
O185       Ni201   1.923       .  S
O185        H208   0.966       .  S
C186        O203   1.286       .  A
C186        O195   1.279       .  A
C186        C357   1.476       .  S
O187       Ni206   1.933       .  S
O187        C193   1.276       .  A
O188       Ni206   1.940       .  S
O188        C190   1.275       .  A
Ni189       O192   1.923       .  S
Ni189       O194   1.901       .  S
C190        O200   1.262       .  A
C190        C367   1.494       .  S
O191       Ni207   1.905       .  S
O191        C197   1.271       .  A
O192        C197   1.277       .  A
C193        C397   1.462       .  S
O194        C196   1.267       .  A
O195       Ni206   1.918       .  S
C196        O202   1.285       .  A
C196        C487   1.488       .  S
C197        C427   1.466       .  S
H198        O199   0.966       .  S
O199       Ni207   1.889       .  S
O199       Ni201   1.876       .  S
O199       Ni206   1.893       .  S
O200       Ni201   1.913       .  S
Ni201       O205   1.889       .  S
Ni201       O203   1.928       .  S
O202       Ni207   1.960       .  S
C204        O205   1.264       .  A
C204        C567   1.450       .  S
O209       Ni215   1.918       .  S
O209        C230   1.275       .  A
O210       Ni233   1.871       .  S
O210        C219   1.257       .  A
O211       Ni215   1.882       .  S
O211       Ni233   1.873       .  S
O211       Ni227   1.929       .  S
O211        H234   0.965       .  S
C212        O229   1.288       .  A
C212        O221   1.278       .  A
C212        C364   1.481       .  S
O213       Ni232   1.961       .  S
O213        C219   1.284       .  A
O214       Ni232   1.940       .  S
O214        C216   1.281       .  A
Ni215       O218   1.939       .  S
Ni215       O220   1.910       .  S
C216        O226   1.278       .  A
C216        C334   1.493       .  S
O217       Ni233   1.904       .  S
O217        C223   1.272       .  A
O218        C223   1.280       .  A
C219        C447   1.491       .  S
O220        C222   1.270       .  A
O221       Ni232   1.926       .  S
C222        O228   1.273       .  A
C222        C377   1.476       .  S
C223        C344   1.494       .  S
H224        O225   0.972       .  S
O225       Ni233   1.892       .  S
O225       Ni227   1.891       .  S
O225       Ni232   1.890       .  S
O226       Ni227   1.942       .  S
Ni227       O231   1.923       .  S
Ni227       O229   1.938       .  S
O228       Ni233   1.927       .  S
C230        O231   1.281       .  A
C230        C547   1.487       .  S
O235       Ni241   1.937       .  S
O235        C256   1.278       .  A
O236       Ni259   1.893       .  S
O236        C245   1.264       .  A
O237       Ni241   1.895       .  S
O237       Ni259   1.902       .  S
O237       Ni253   1.945       .  S
O237        H260   0.965       .  S
C238        O255   1.287       .  A
C238        O247   1.277       .  A
C238        C324   1.481       .  S
O239       Ni258   1.923       .  S
O239        C245   1.274       .  A
O240       Ni258   1.933       .  S
O240        C242   1.276       .  A
Ni241       O244   1.950       .  S
Ni241       O246   1.903       .  S
C242        O252   1.268       .  A
C242        C517   1.504       .  S
O243       Ni259   1.914       .  S
O243        C249   1.271       .  A
O244        C249   1.280       .  A
C245        C354   1.480       .  S
O246        C248   1.269       .  A
O247       Ni258   1.913       .  S
C248        O254   1.279       .  A
C248        C654   1.474       .  S
C249        C337   1.490       .  S
H250        O251   0.967       .  S
O251       Ni259   1.896       .  S
O251       Ni253   1.884       .  S
O251       Ni258   1.896       .  S
O252       Ni253   1.933       .  S
Ni253       O257   1.908       .  S
Ni253       O255   1.939       .  S
O254       Ni259   1.944       .  S
C256        O257   1.271       .  A
C256        C474   1.474       .  S
O261       Ni267   1.944       .  S
O261        C282   1.280       .  A
O262       Ni285   1.901       .  S
O262        C271   1.270       .  A
O263       Ni267   1.890   1_545  S
O263       Ni285   1.888       .  S
O263       Ni279   1.941       .  S
O263        H286   0.965       .  S
C264        O281   1.295       .  A
C264        O273   1.277       .  A
C264        C497   1.503       .  S
O265       Ni284   1.920       .  S
O265        C271   1.271       .  A
O266       Ni284   1.926       .  S
O266        C268   1.269       .  A
Ni267       O270   1.952       .  S
Ni267       O272   1.910       .  S
C268        O278   1.261       .  A
C268        C327   1.493       .  S
O269       Ni285   1.915   1_565  S
O269        C275   1.271       .  A
O270        C275   1.282       .  A
C271        C644   1.475   1_556  S
O272        C274   1.271       .  A
O273       Ni284   1.919       .  S
C274        O280   1.289       .  A
C274        C314   1.497       .  S
C275        C387   1.498       .  S
H276        O277   0.967       .  S
O277       Ni285   1.909       .  S
O277       Ni279   1.884       .  S
O277       Ni284   1.902       .  S
O278       Ni279   1.903       .  S
Ni279       O283   1.893       .  S
Ni279       O281   1.964       .  S
O280       Ni285   1.964   1_565  S
C282        O283   1.269   1_565  A
C282        C414   1.479       .  S
O287       Ni293   1.944   1_556  S
O287        C308   1.278       .  A
O288       Ni311   1.911       .  S
O288        C297   1.274       .  A
O289       Ni293   1.893       .  S
O289       Ni311   1.897       .  S
O289       Ni305   1.937       .  S
O289        H312   0.966       .  S
C290        O307   1.288       .  A
C290        O299   1.275   1_556  A
C290        C504   1.490       .  S
O291       Ni310   1.921       .  S
O291        C297   1.271       .  A
O292       Ni310   1.924       .  S
O292        C294   1.271       .  A
Ni293       O296   1.948       .  S
Ni293       O298   1.892       .  S
C294        O304   1.268       .  A
C294        C537   1.503       .  S
O295       Ni311   1.919       .  S
O295        C301   1.275       .  A
O296        C301   1.282       .  A
C297        C347   1.477       .  S
O298        C300   1.268       .  A
O299       Ni310   1.915       .  S
C300        O306   1.291       .  A
C300        C317   1.514       .  S
C301        C457   1.491       .  S
H302        O303   0.967       .  S
O303       Ni311   1.913       .  S
O303       Ni305   1.893       .  S
O303       Ni310   1.905       .  S
O304       Ni305   1.924       .  S
Ni305       O309   1.900   1_554  S
Ni305       O307   1.948   1_554  S
O306       Ni311   1.982       .  S
C308        O309   1.267       .  A
C308        C407   1.474       .  S
C313        C314   1.416       .  A
C313        C318   1.414       .  A
C313        H320   1.084       .  S
C314        C315   1.402       .  A
C315        C316   1.403   1_556  A
C315       Br322   1.920       .  S
C316        C317   1.421       .  A
C316        H321   1.083       .  S
C317        C318   1.412   1_554  A
C318       Br319   1.917       .  S
C323        C324   1.410       .  A
C323        C328   1.399       .  A
C323        H330   1.084       .  S
C324        C325   1.403       .  A
C325        C326   1.401       .  A
C325       Br332   1.918       .  S
C326        C327   1.417       .  A
C326        H331   1.083       .  S
C327        C328   1.411       .  A
C328       Br329   1.923       .  S
C333        C334   1.410       .  A
C333        C338   1.408       .  A
C333        H340   1.083       .  S
C334        C335   1.411       .  A
C335        C336   1.405       .  A
C335       Br342   1.919       .  S
C336        C337   1.407       .  A
C336        H341   1.084       .  S
C337        C338   1.410       .  A
C338       Br339   1.918       .  S
C343        C344   1.415       .  A
C343        C348   1.394       .  A
C343        H350   1.083       .  S
C344        C345   1.415       .  A
C345        C346   1.403       .  A
C345       Br352   1.921       .  S
C346        C347   1.408       .  A
C346        H351   1.084       .  S
C347        C348   1.402       .  A
C348       Br349   1.921       .  S
C353        C354   1.401       .  A
C353        C358   1.391       .  A
C353        H360   1.083       .  S
C354        C355   1.417       .  A
C355        C356   1.401       .  A
C355       Br362   1.921       .  S
C356        C357   1.401       .  A
C356        H361   1.083       .  S
C357        C358   1.414       .  A
C358       Br359   1.925       .  S
C363        C364   1.398       .  A
C363        C368   1.404       .  A
C363        H370   1.084       .  S
C364        C365   1.413       .  A
C365        C366   1.404       .  A
C365       Br372   1.918       .  S
C366        C367   1.402       .  A
C366        H371   1.083       .  S
C367        C368   1.425       .  A
C368       Br369   1.923       .  S
C373        C374   1.395       .  A
C373        C378   1.392       .  A
C373        H380   1.084       .  S
C374        C375   1.408       .  A
C375        C376   1.403       .  A
C375       Br382   1.917       .  S
C376        C377   1.404       .  A
C376        H381   1.083       .  S
C377        C378   1.416       .  A
C378       Br379   1.921       .  S
C383        C384   1.400       .  A
C383        C388   1.401       .  A
C383        H390   1.084       .  S
C384        C385   1.410       .  A
C385        C386   1.410       .  A
C385       Br392   1.915       .  S
C386        C387   1.409       .  A
C386        H391   1.083       .  S
C387        C388   1.421       .  A
C388       Br389   1.923   1_565  S
C393        C394   1.404       .  A
C393        C398   1.394       .  A
C393        H400   1.084       .  S
C394        C395   1.409       .  A
C395        C396   1.398       .  A
C395       Br402   1.921       .  S
C396        C397   1.403       .  A
C396        H401   1.084       .  S
C397        C398   1.403       .  A
C398       Br399   1.918       .  S
C403        C404   1.402   1_655  A
C403        C408   1.397       .  A
C403        H410   1.084       .  S
C404        C405   1.408       .  A
C405        C406   1.402       .  A
C405       Br412   1.918       .  S
C406        C407   1.404   1_455  A
C406        H411   1.084       .  S
C407        C408   1.410       .  A
C408       Br409   1.922       .  S
C413        C414   1.411   1_545  A
C413        C418   1.396       .  A
C413        H420   1.083       .  S
C414        C415   1.414       .  A
C415        C416   1.395       .  A
C415       Br422   1.921       .  S
C416        C417   1.399       .  A
C416        H421   1.084       .  S
C417        C418   1.399   1_565  A
C418       Br419   1.918       .  S
C423        C424   1.400       .  A
C423        C428   1.397       .  A
C423        H430   1.084       .  S
C424        C425   1.402       .  A
C425        C426   1.395       .  A
C425       Br432   1.919       .  S
C426        C427   1.405       .  A
C426        H431   1.084       .  S
C427        C428   1.410       .  A
C428       Br429   1.921       .  S
C433        C434   1.407       .  A
C433        C438   1.399       .  A
C433        H440   1.083       .  S
C434        C435   1.408       .  A
C435        C436   1.389       .  A
C435       Br442   1.925       .  S
C436        C437   1.409       .  A
C436        H441   1.083       .  S
C437        C438   1.412       .  A
C438       Br439   1.921       .  S
C443        C444   1.397       .  A
C443        C448   1.404       .  A
C443        H450   1.084       .  S
C444        C445   1.409       .  A
C445        C446   1.394       .  A
C445       Br452   1.921       .  S
C446        C447   1.403       .  A
C446        H451   1.083       .  S
C447        C448   1.428       .  A
C448       Br449   1.926       .  S
C453        C454   1.407       .  A
C453        C458   1.410       .  A
C453        H460   1.083       .  S
C454        C455   1.411       .  A
C455        C456   1.402       .  A
C455       Br462   1.920       .  S
C456        C457   1.406       .  A
C456        H461   1.084       .  S
C457        C458   1.414       .  A
C458       Br459   1.919       .  S
C463        C464   1.404       .  A
C463        C468   1.402       .  A
C463        H470   1.083       .  S
C464        C465   1.399       .  A
C465        C466   1.385       .  A
C465       Br472   1.921       .  S
C466        C467   1.406       .  A
C466        H471   1.084       .  S
C467        C468   1.408       .  A
C468       Br469   1.918       .  S
C473        C474   1.394       .  A
C473        C478   1.392       .  A
C473        H480   1.084       .  S
C474        C475   1.412       .  A
C475        C476   1.409       .  A
C475       Br482   1.916       .  S
C476        C477   1.405       .  A
C476        H481   1.083       .  S
C477        C478   1.420       .  A
C478       Br479   1.924       .  S
C483        C484   1.420       .  A
C483        C488   1.401       .  A
C483        H490   1.083       .  S
C484        C485   1.412       .  A
C485        C486   1.408       .  A
C485       Br492   1.918       .  S
C486        C487   1.412       .  A
C486        H491   1.083       .  S
C487        C488   1.402       .  A
C488       Br489   1.920       .  S
C493        C494   1.405       .  A
C493        C498   1.409       .  A
C493        H500   1.083       .  S
C494        C495   1.431       .  A
C495        C496   1.410       .  A
C495       Br502   1.924       .  S
C496        C497   1.399       .  A
C496        H501   1.084       .  S
C497        C498   1.421       .  A
C498       Br499   1.922       .  S
C503        C504   1.402       .  A
C503        C508   1.409       .  A
C503        H510   1.084       .  S
C504        C505   1.415       .  A
C505        C506   1.401       .  A
C505       Br512   1.923       .  S
C506        C507   1.407       .  A
C506        H511   1.083       .  S
C507        C508   1.424       .  A
C508       Br509   1.921   1_655  S
C513        C514   1.402       .  A
C513        C518   1.409       .  A
C513        H520   1.084       .  S
C514        C515   1.414       .  A
C515        C516   1.400       .  A
C515       Br522   1.921       .  S
C516        C517   1.405       .  A
C516        H521   1.083       .  S
C517        C518   1.427       .  A
C518       Br519   1.922       .  S
C523        C524   1.407   1_556  A
C523        C528   1.408       .  A
C523        H530   1.083       .  S
C524        C525   1.412       .  A
C525        C526   1.405   1_554  A
C525       Br532   1.920       .  S
C526        C527   1.407       .  A
C526        H531   1.084       .  S
C527        C528   1.411       .  A
C528       Br529   1.917       .  S
C533        C534   1.412       .  A
C533        C538   1.399   1_455  A
C533        H540   1.083       .  S
C534        C535   1.410       .  A
C535        C536   1.409       .  A
C535       Br542   1.919       .  S
C536        C537   1.417   1_455  A
C536        H541   1.083       .  S
C537        C538   1.414       .  A
C538       Br539   1.924       .  S
C543        C544   1.397       .  A
C543        C548   1.393       .  A
C543        H550   1.085       .  S
C544        C545   1.411       .  A
C545        C546   1.409       .  A
C545       Br552   1.914       .  S
C546        C547   1.405       .  A
C546        H551   1.083       .  S
C547        C548   1.419       .  A
C548       Br549   1.925       .  S
C553        C554   1.409       .  A
C553        C558   1.409       .  A
C553        H560   1.084       .  S
C554        C555   1.407   1_556  A
C555        C556   1.403       .  A
C555       Br562   1.919       .  S
C556        C557   1.407       .  A
C556        H561   1.084       .  S
C557        C558   1.408   1_554  A
C558       Br559   1.916       .  S
C563        C564   1.411       .  A
C563        C568   1.393       .  A
C563        H570   1.083       .  S
C564        C565   1.420       .  A
C565        C566   1.390       .  A
C565       Br572   1.925       .  S
C566        C567   1.395       .  A
C566        H571   1.085       .  S
C567        C568   1.399       .  A
C568       Br569   1.920       .  S
C573        C574   1.401       .  A
C573        C578   1.402       .  A
C573        H580   1.084       .  S
C574        C575   1.411       .  A
C575        C576   1.405       .  A
C575       Br582   1.919       .  S
C576        C577   1.404       .  A
C576        H581   1.084       .  S
C577        C578   1.413       .  A
C578       Br579   1.917       .  S
C583        C584   1.399   1_655  A
C583        C588   1.396       .  A
C583        H590   1.084       .  S
C584        C585   1.417   1_455  A
C585        C586   1.401       .  A
C585       Br592   1.921   1_655  S
C586        C587   1.402       .  A
C586        H591   1.083       .  S
C587        C588   1.424       .  A
C588       Br589   1.928       .  S
C593        C594   1.403       .  A
C593        C598   1.398       .  A
C593        H600   1.084       .  S
C594        C595   1.404       .  A
C595        C596   1.399       .  A
C595       Br602   1.917       .  S
C596        C597   1.405       .  A
C596        H601   1.084       .  S
C597        C598   1.411       .  A
C598       Br599   1.922       .  S
C603        C604   1.407       .  A
C603        C608   1.408   1_565  A
C603        H610   1.083       .  S
C604        C605   1.412       .  A
C605        C606   1.382   1_565  A
C605       Br612   1.926   1_455  S
C606        C607   1.402       .  A
C606        H611   1.084       .  S
C607        C608   1.413       .  A
C608       Br609   1.917       .  S
C613        C614   1.400       .  A
C613        C618   1.393       .  A
C613        H620   1.084       .  S
C614        C615   1.405       .  A
C615        C616   1.399       .  A
C615       Br622   1.918       .  S
C616        C617   1.405   1_565  A
C616        H621   1.084       .  S
C617        C618   1.409   1_545  A
C618       Br619   1.921   1_565  S
C623        C624   1.402       .  A
C623        C628   1.396       .  A
C623        H630   1.083       .  S
C624        C625   1.427       .  A
C625        C626   1.399       .  A
C625       Br632   1.925       .  S
C626        C627   1.396       .  A
C626        H631   1.084       .  S
C627        C628   1.414       .  A
C628       Br629   1.923       .  S
C633        C634   1.403       .  A
C633        C638   1.406       .  A
C633        H640   1.084       .  S
C634        C635   1.409       .  A
C635        C636   1.409       .  A
C635       Br642   1.918       .  S
C636        C637   1.409       .  A
C636        H641   1.083       .  S
C637        C638   1.417       .  A
C638       Br639   1.921       .  S
C643        C644   1.409       .  A
C643        C648   1.396       .  A
C643        H650   1.083   1_554  S
C644        C645   1.411       .  A
C645        C646   1.396       .  A
C645       Br652   1.922       .  S
C646        C647   1.401       .  A
C646        H651   1.083       .  S
C647        C648   1.401       .  A
C648       Br649   1.917       .  S
C653        C654   1.407       .  A
C653        C658   1.407       .  A
C653        H660   1.084       .  S
C654        C655   1.406       .  A
C655        C656   1.398       .  A
C655       Br662   1.918       .  S
C656        C657   1.406       .  A
C656        H661   1.084       .  S
C657        C658   1.408       .  A
C658       Br659   1.917       .  S
C663        C664   1.405       .  A
C663        C668   1.408       .  A
C663        H670   1.083   1_545  S
C664        C665   1.414       .  A
C665        C666   1.395       .  A
C665       Br672   1.921       .  S
C666        C667   1.399       .  A
C666        H671   1.084       .  S
C667        C668   1.412       .  A
C668       Br669   1.916       .  S
