geometry optimzed in LAMMPS
_audit_creation_date              2020-11-30 
_audit_creation_method            'lammps2cif' 
_symmetry_space_group_name_H-M    'P1' 
_symmetry_Int_Tables_number       1 
_symmetry_cell_setting            triclinic 
loop_ 
_symmetry_equiv_pos_as_xyz 
  x,y,z 
_cell_length_a                    49.1217187 
_cell_length_b                    46.92680701475565 
_cell_length_c                    44.64698372426841 
_cell_angle_alpha                 91.23065958748671 
_cell_angle_beta                  90.49871875122203 
_cell_angle_gamma                 89.67972753865692 
loop_ 
_atom_site_label 
_atom_site_type_symbol 
_atom_site_fract_x 
_atom_site_fract_y 
_atom_site_fract_z 
_atom_site_charge 
O1          O  0.14373422  0.19349569  0.04326049    -0.75200
O2          O  0.11398915  0.15956730  0.02584192    -0.54100
C3          C  0.13559739  0.16723555  0.03960228     0.78600
O4          O  0.02504754  0.28401770  0.03273666    -0.59800
O5          O  0.05705136  0.31557468  0.02174691    -0.52800
C6          C  0.03868232  0.30644507  0.03933660     0.70600
O7          O  0.05663323  0.19770321  0.06196820    -0.74300
O8          O  0.06522573  0.15872617  0.03278824    -0.54900
C9          C  0.06237187  0.17118434  0.05851767     0.76600
O10         O  0.13557837  0.29465999  0.03560608    -0.59500
O11         O  0.10771262  0.32022603  0.00483304    -0.52600
C12         C  0.12698966  0.31830053  0.02397272     0.73200
Zr13       Zr  0.12580195  0.24222458  0.02963405     2.54700
O14         O  0.12502030  0.24711975  0.08400014    -0.80000
O15         O  0.17512393  0.24720455  0.03011498    -0.93500
Zr16       Zr  0.04235267  0.23535694  0.02959426     2.64700
O17         O  0.02736794  0.24424954  0.08084277    -0.98400
O18         O  0.99850831  0.21134061  0.02828176    -0.80500
O19         O  0.08610568  0.21423987  0.03160080    -0.83800
O20         O  0.08205805  0.26440963  0.02855681    -2.18500
O21         O  0.13171846  0.28438997  0.42612026    -0.67200
O22         O  0.10141643  0.31427999  0.44928705    -0.51800
C23         C  0.12100471  0.30942934  0.43143798     0.71500
O24         O  0.05433268  0.18285908  0.41642930    -0.60100
O25         O  0.07082268  0.15038422  0.44897902    -0.52100
C26         C  0.06450672  0.15839699  0.42235581     0.73400
O27         O  0.02416937  0.27028687  0.42295632    -0.71500
O28         O  0.05213769  0.30622443  0.43690135    -0.50200
C29         C  0.03762945  0.29271332  0.41706921     0.74700
O30         O  0.13195052  0.18165624  0.42804675    -0.66900
O31         O  0.12351361  0.15633482  0.46919859    -0.54100
C32         C  0.13042546  0.15760163  0.44204011     0.73100
Zr33       Zr  0.12332152  0.23381389  0.44118450     2.77500
O34         O  0.12628744  0.23388768  0.38672296    -0.97600
O35         O  0.17281659  0.23299824  0.44414977    -0.78400
Zr36       Zr  0.03985188  0.22528685  0.44313286     2.70100
O37         O  0.01825845  0.21945600  0.39387629    -0.79700
O38         O  0.99496196  0.20829887  0.45704747    -0.98800
Zr39       Zr  0.08678215  0.18152235  0.49050663     2.21500
Zr40       Zr  0.07801427  0.28717684  0.98137410     2.11100
O41         O  0.07915577  0.25474409  0.43947225    -2.47400
O42         O  0.08417427  0.20524753  0.44468899    -0.79500
O43         O  0.12013468  0.26572879  0.48316318    -0.71700
O44         O  0.04158278  0.20227123  0.98816973    -2.32600
O45         O  0.12666168  0.21091184  0.48778558    -2.28800
O46         O  0.03735870  0.26014480  0.98359316    -0.73400
H47         H  0.08219301  0.27748159  0.04553018     0.78600
H48         H  0.02776015  0.18777280  0.98897742     0.79700
H49         H  0.07938354  0.26421680  0.42056334     0.81900
H50         H  0.14362404  0.20041145  0.48839109     0.79500
H51         H  0.99971507  0.19726545  0.04445484     0.42500
H52         H  0.98556912  0.22539911  0.46530297     0.41500
H53         H  0.00017946  0.22880455  0.39529920     0.41200
H54         H  0.11458897  0.24994898  0.38035815     0.39100
H55         H  0.17762786  0.25124741  0.45434907     0.42200
H56         H  0.17930428  0.25753785  0.04915935     0.37000
H57         H  0.13956200  0.26101086  0.08895271     0.43100
H58         H  0.03964764  0.25924546  0.08893261     0.39600
H59         H  0.14509036  0.24011052  0.38262189     0.44500
H60         H  0.17886984  0.26114849  0.01435224     0.43200
H61         H  0.00928611  0.25345466  0.07917321     0.43300
H62         H  0.98531297  0.20384571  0.43799273     0.43700
O63         O  0.41512392  0.21540905  0.06589256    -0.75200
O64         O  0.40443264  0.17722709  0.03590773    -0.54100
C65         C  0.41063853  0.18876720  0.06163230     0.78600
O66         O  0.31982794  0.29718737  0.06069884    -0.59800
O67         O  0.34336896  0.33218626  0.03695412    -0.52800
C68         C  0.32599646  0.32380902  0.05583303     0.70600
O69         O  0.32996903  0.19474035  0.05444064    -0.74300
O70         O  0.36026873  0.16641889  0.52499052    -0.54900
C71         C  0.34010519  0.17026218  0.04532676     0.76600
O72         O  0.42351589  0.30707258  0.05292520    -0.59500
O73         O  0.38681827  0.33392561  0.04384111    -0.52600
C74         C  0.40490844  0.32417219  0.06211114     0.73200
Zr75       Zr  0.41801413  0.25767832  0.03633060     2.54700
O76         O  0.44570137  0.25926234  0.08201285    -0.80000
O77         O  0.46383658  0.25415771  0.01631602    -0.93500
Zr78       Zr  0.33512873  0.24731810  0.04391097     2.64700
O79         O  0.34171820  0.24393017  0.09786932    -0.98400
O80         O  0.28595847  0.24294096  0.04816280    -0.80500
O81         O  0.37927646  0.22806221  0.03805536    -0.83800
O82         O  0.37356379  0.27718211  0.04196311    -2.18500
O83         O  0.42142066  0.30968936  0.45070843    -0.67200
O84         O  0.38420590  0.33571109  0.45880718    -0.51800
C85         C  0.40378233  0.32782730  0.44162813     0.71500
O86         O  0.32524938  0.19450261  0.44124836    -0.60100
O87         O  0.35575655  0.16681968  0.46642972    -0.52100
C88         C  0.33564166  0.16985923  0.44848803     0.73400
O89         O  0.31944635  0.29677923  0.43878436    -0.71500
O90         O  0.32507183  0.31490176  0.48432681    -0.50200
C91         C  0.32003054  0.31866401  0.45689111     0.74700
O92         O  0.43317999  0.21153334  0.43942636    -0.66900
O93         O  0.40333046  0.17740798  0.44808677    -0.54100
C94         C  0.41891770  0.19051186  0.42998469     0.73100
Zr95       Zr  0.41418256  0.25832775  0.44964156     2.77500
O96         O  0.40328723  0.26098851  0.39629043    -0.97600
O97         O  0.45999316  0.26428045  0.43034322    -0.78400
Zr98       Zr  0.33274778  0.24690202  0.45335800     2.70100
O99         O  0.33270129  0.24458727  0.39886785    -0.79700
O100        O  0.28330602  0.24417722  0.45462763    -0.98800
Zr101      Zr  0.38375423  0.19866376  0.49422912     2.21500
Zr102      Zr  0.37062850  0.30590835  0.50037440     2.11100
O103        O  0.37027251  0.27881884  0.45387365    -2.47400
O104        O  0.37685539  0.22631353  0.45059730    -0.79500
O105        O  0.41523941  0.28614351  0.49526919    -0.71700
O106        O  0.33891447  0.21938717  0.49710496    -2.32600
O107        O  0.42274784  0.22887666  0.49246438    -2.28800
O108        O  0.33229333  0.27411121  0.49940279    -0.73400
H109        H  0.37175459  0.28685867  0.06090180     0.78600
H110        H  0.32509558  0.20487356  0.49753882     0.79700
H111        H  0.36752456  0.29063371  0.43677899     0.81900
H112        H  0.43938908  0.21779212  0.49184359     0.79500
H113        H  0.28178143  0.22386426  0.03945517     0.42500
H114        H  0.27949160  0.22504685  0.46247963     0.41500
H115        H  0.31490736  0.23608160  0.39335913     0.41200
H116        H  0.38414292  0.26744006  0.39480178     0.39100
H117        H  0.45826798  0.27870452  0.41458729     0.42200
H118        H  0.47552338  0.26209275  0.03250727     0.37000
H119        H  0.45893285  0.24336352  0.07995770     0.43100
H120        H  0.36136870  0.23968378  0.10038083     0.39600
H121        H  0.41408950  0.27706317  0.38887634     0.44500
H122        H  0.46449476  0.26858387  0.00048406     0.43200
H123        H  0.33961673  0.26369172  0.10574380     0.43300
H124        H  0.27795801  0.25759207  0.47097843     0.43700
O125        O  0.17194325  0.04977987  0.14906670    -0.75200
O126        O  0.14634413  0.02147572  0.11752091    -0.54100
C127        C  0.14881458  0.04027297  0.13835461     0.78600
O128        O  0.27387765  0.05843909  0.05124583    -0.59800
O129        O  0.30660552  0.03689688  0.07912858    -0.52800
C130        C  0.29737671  0.05804919  0.06386975     0.70600
O131        O  0.18811081  0.04234383  0.03168675    -0.74300
O132        O  0.15957237  0.03572010  0.06950954    -0.54900
C133        C  0.16921916  0.05133445  0.04877600     0.76600
O134        O  0.26876619  0.05874255  0.15838045    -0.59500
O135        O  0.30215805  0.03187280  0.13583267    -0.52600
C136        C  0.29409756  0.05177516  0.15336338     0.73200
Zr137      Zr  0.22237248  0.04205593  0.14054064     2.54700
O138        O  0.21667380  0.09310652  0.13378247    -0.80000
O139        O  0.21924407  0.04642935  0.19491058    -0.93500
Zr140      Zr  0.23254477  0.03091267  0.05061939     2.64700
O141        O  0.22553081  0.07775653  0.02912400    -0.98400
O142        O  0.25101045  0.01632970  0.00225950    -0.80500
O143        O  0.20732608  0.03008374  0.09341052    -0.83800
O144        O  0.25167530  0.03979981  0.09892606    -2.18500
O145        O  0.27542708  0.44946794  0.16742255    -0.67200
O146        O  0.30490231  0.47820197  0.14290868    -0.51800
C147        C  0.29970986  0.45971645  0.16246020     0.71500
O148        O  0.19317952  0.42943097  0.03957074    -0.60100
O149        O  0.15786835  0.45089584  0.06402575    -0.52100
C150        C  0.16840339  0.43058051  0.04787997     0.73400
O151        O  0.28240202  0.44935813  0.04729410    -0.71500
O152        O  0.30869802  0.45829076  0.08637417    -0.50200
C153        C  0.29998016  0.44065858  0.06612395     0.74700
O154        O  0.17732342  0.44304809  0.15715712    -0.66900
O155        O  0.14943635  0.46662863  0.12469125    -0.54100
C156        C  0.15330499  0.45000109  0.14660453     0.73100
Zr157      Zr  0.22666045  0.45646786  0.14878962     2.77500
O158        O  0.23057327  0.40507530  0.15436761    -0.97600
O159        O  0.22165617  0.46410612  0.20259182    -0.78400
Zr160      Zr  0.23478796  0.44832119  0.05955371     2.70100
O161        O  0.23990186  0.40018942  0.07836435    -0.79700
O162        O  0.23663786  0.42645383  0.00993351    -0.98800
Zr163      Zr  0.17796081  0.49161723  0.09168814     2.21500
Zr164      Zr  0.28054897  0.99908980  0.10384472     2.11100
O165        O  0.25601328  0.45428696  0.10706772    -2.47400
O166        O  0.20501950  0.45066516  0.10094337    -0.79500
O167        O  0.25172628  0.00234931  0.14730264    -0.71700
O168        O  0.20671773  0.98773831  0.04993751    -2.32600
O169        O  0.19742782  0.49609505  0.14123566    -2.28800
O170        O  0.26083892  0.99061797  0.05567501    -0.73400
H171        H  0.26088403  0.05777208  0.10096415     0.78600
H172        H  0.19605839  0.98485845  0.03186077     0.79700
H173        H  0.26809778  0.43844521  0.11072116     0.81900
H174        H  0.18391439  0.49673664  0.15678544     0.79500
H175        H  0.26995993  0.02340520  0.00243472     0.42500
H176        H  0.25500261  0.43089029  0.00252502     0.41500
H177        H  0.22775278  0.38828840  0.06553643     0.41200
H178        H  0.23060541  0.40232892  0.17629725     0.39100
H179        H  0.20496521  0.47587711  0.20474207     0.42200
H180        H  0.20597253  0.03171068  0.20052658     0.37000
H181        H  0.20024239  0.09487170  0.12095271     0.43100
H182        H  0.23041816  0.09168533  0.04521948     0.39600
H183        H  0.21283973  0.39742050  0.14734189     0.44500
H184        H  0.23692980  0.03928181  0.20255661     0.43200
H185        H  0.23983389  0.07969660  0.01380533     0.43300
H186        H  0.23623338  0.40558314  0.01263052     0.43700
O187        O  0.18570681  0.05156674  0.38726109    -0.75200
O188        O  0.15171487  0.02189395  0.39532348    -0.54100
C189        C  0.16098657  0.04756926  0.39363698     0.78600
O190        O  0.27618615  0.03381925  0.31360819    -0.59800
O191        O  0.30561252  0.01647272  0.34874190    -0.52800
C192        C  0.30049079  0.02915285  0.32436190     0.70600
O193        O  0.17854554  0.03217609  0.31436641    -0.74300
O194        O  0.15062401  0.00179272  0.33871387    -0.54900
C195        C  0.15466800  0.02143013  0.32013672     0.76600
O196        O  0.26199859  0.06047231  0.42440751    -0.59500
O197        O  0.29998146  0.03616620  0.41013205    -0.52600
C198        C  0.28762306  0.05904428  0.41989785     0.73200
Zr199      Zr  0.22198274  0.03220186  0.41640391     2.54700
O200        O  0.21145671  0.08034860  0.43451386    -0.80000
O201        O  0.20401143  0.02978419  0.46680234    -0.93500
Zr202      Zr  0.22813166  0.02272548  0.32786181     2.64700
O203        O  0.22464182  0.07375577  0.31964605    -0.98400
O204        O  0.22900100  0.01111911  0.27441274    -0.80500
O205        O  0.20511886  0.01876458  0.37118843    -0.83800
O206        O  0.25126746  0.03165689  0.37443541    -2.18500
O207        O  0.27594086  0.44404396  0.44693414    -0.67200
O208        O  0.30589687  0.45385071  0.41094943    -0.51800
C209        C  0.29706569  0.43761115  0.43164583     0.71500
O210        O  0.19129200  0.41896848  0.32191524    -0.60100
O211        O  0.15765645  0.44519737  0.34475240    -0.52100
C212        C  0.16585124  0.42502773  0.32751576     0.73400
O213        O  0.28848790  0.43258306  0.32948095    -0.71500
O214        O  0.31387160  0.46305063  0.35916962    -0.50200
C215        C  0.31159036  0.44295159  0.33969903     0.74700
O216        O  0.19395809  0.41754419  0.41963151    -0.66900
O217        O  0.15755543  0.44015590  0.39948042    -0.54100
C218        C  0.16945782  0.41785597  0.41003516     0.73100
Zr219      Zr  0.23027328  0.45042543  0.42668816     2.77500
O220        O  0.23630734  0.40120967  0.44266748    -0.97600
O221        O  0.20890051  0.46099011  0.47453631    -0.78400
Zr222      Zr  0.23727584  0.43893875  0.33695974     2.70100
O223        O  0.24256978  0.38757429  0.34152925    -0.79700
O224        O  0.24167565  0.43729509  0.28265800    -0.98800
Zr225      Zr  0.17906985  0.48040618  0.37451493     2.21500
Zr226      Zr  0.28120813  0.49162608  0.38371353     2.11100
O227        O  0.25823501  0.44690889  0.38400329    -2.47400
O228        O  0.21284494  0.44828572  0.37945152    -0.79500
O229        O  0.25407207  0.49484184  0.42740096    -0.71700
O230        O  0.20568230  0.47676859  0.32938935    -2.32600
O231        O  0.19860453  0.48887204  0.42247439    -2.28800
O232        O  0.25980767  0.48325713  0.33524862    -0.73400
H233        H  0.26090033  0.04926571  0.37178081     0.78600
H234        H  0.19465072  0.47342343  0.31169370     0.79700
H235        H  0.26991120  0.43057301  0.38535142     0.81900
H236        H  0.18447596  0.48966553  0.43736090     0.79500
H237        H  0.21073084  0.01651986  0.26682750     0.42500
H238        H  0.22556349  0.44774450  0.27507123     0.41500
H239        H  0.24796401  0.38484188  0.36269151     0.41200
H240        H  0.24402298  0.39110130  0.42496901     0.39100
H241        H  0.21949360  0.47713618  0.48290365     0.42200
H242        H  0.18495172  0.03653222  0.46497835     0.37000
H243        H  0.21394133  0.09265997  0.41702223     0.43100
H244        H  0.23754319  0.07729239  0.30322574     0.39600
H245        H  0.25109617  0.40070464  0.45778316     0.44500
H246        H  0.21353787  0.04515315  0.47806929     0.43200
H247        H  0.23321447  0.08275640  0.33759801     0.43300
H248        H  0.23817966  0.41713473  0.27693802     0.43700
O249        O  0.01953204  0.06478916  0.17719817    -0.75200
O250        O  0.05143235  0.08504815  0.20816089    -0.54100
C251        C  0.04445995  0.06826151  0.18683368     0.78600
O252        O  0.43745737  0.18482790  0.19530840    -0.59800
O253        O  0.40445108  0.15382733  0.20310138    -0.52800
C254        C  0.41711506  0.17051495  0.18564293     0.70600
O255        O  0.02031085  0.15544202  0.17068716    -0.74300
O256        O  0.05484641  0.13836723  0.19928485    -0.54900
C257        C  0.04463906  0.14611260  0.17414748     0.76600
O258        O  0.42345119  0.07216092  0.18265074    -0.59500
O259        O  0.39732062  0.10077830  0.21314292    -0.52600
C260        C  0.40023402  0.08174294  0.19267028     0.73200
Zr261      Zr  0.47339177  0.08060080  0.19238449     2.54700
O262        O  0.46881749  0.08451145  0.13827272    -0.80000
O263        O  0.46986411  0.02882589  0.18899745    -0.93500
Zr264      Zr  0.48336625  0.16668352  0.20282639     2.64700
O265        O  0.48686585  0.19798939  0.15968536    -0.98400
O266        O  0.50094920  0.21255565  0.22050289    -0.80500
O267        O  0.99821401  0.12247497  0.20185372    -0.83800
O268        O  0.45360013  0.12645848  0.19740058    -2.18500
O269        O  0.42624961  0.06142851  0.28758784    -0.67200
O270        O  0.39948881  0.09641958  0.26823071    -0.51800
C271        C  0.40267965  0.07300943  0.28173263     0.71500
O272        O  0.02407044  0.14534084  0.31585250    -0.60100
O273        O  0.05647982  0.13236955  0.28226912    -0.52100
C274        C  0.04789971  0.13616733  0.30919471     0.73400
O275        O  0.44147809  0.18258887  0.28921315    -0.71500
O276        O  0.40718424  0.15272690  0.28579467    -0.50200
C277        C  0.42058322  0.17161913  0.30080628     0.74700
O278        O  0.02500455  0.06043933  0.29363601    -0.66900
O279        O  0.05437283  0.08337276  0.26320606    -0.54100
C280        C  0.04940632  0.06604702  0.28380835     0.73100
Zr281      Zr  0.47567814  0.07290822  0.28066734     2.77500
O282        O  0.47347609  0.07104922  0.33504118    -0.97600
O283        O  0.47431228  0.02117942  0.27544827    -0.78400
Zr284      Zr  0.48509793  0.15884705  0.29001263     2.70100
O285        O  0.47587716  0.16466316  0.34328881    -0.79700
O286        O  0.50683337  0.20487380  0.29848480    -0.98800
Zr287      Zr  0.02855312  0.11768915  0.23921889     2.21500
Zr288      Zr  0.42804974  0.12758408  0.24285346     2.11100
O289        O  0.45486843  0.11906261  0.28699462    -2.47400
O290        O  0.00363845  0.11651240  0.28360261    -0.79500
O291        O  0.44822800  0.08088345  0.23747186    -0.71700
O292        O  0.01196398  0.16488000  0.24533381    -2.32600
O293        O  0.00073024  0.07582116  0.23662493    -2.28800
O294        O  0.45727591  0.16785630  0.24719243    -0.73400
H295        H  0.44229006  0.12656058  0.17983630     0.78600
H296        H  0.02679377  0.17828757  0.24682094     0.79700
H297        H  0.44371378  0.11870810  0.30469977     0.81900
H298        H  0.01123225  0.05841249  0.23481144     0.79500
H299        H  0.48655532  0.22646317  0.21518330     0.42500
H300        H  0.50117629  0.21097527  0.31887987     0.41500
H301        H  0.47907568  0.14556076  0.35167803     0.41200
H302        H  0.48526780  0.05471737  0.34037956     0.39100
H303        H  0.46863173  0.01461845  0.29536477     0.42200
H304        H  0.95658658  0.02602444  0.20875010     0.37000
H305        H  0.95206916  0.09327614  0.13514031     0.43100
H306        H  0.49037045  0.18607226  0.14155889     0.39600
H307        H  0.48364534  0.08806735  0.34220638     0.44500
H308        H  0.47463558  0.02392103  0.16799699     0.43200
H309        H  0.46868747  0.20664618  0.15645824     0.43300
H310        H  0.52645478  0.20033806  0.30061361     0.43700
O311        O  0.01242435  0.30009382  0.17662218    -0.75200
O312        O  0.04651642  0.32981350  0.18508987    -0.54100
C313        C  0.03170812  0.31520538  0.16675173     0.77400
O314        O  0.42807653  0.42237479  0.19244780    -0.59800
O315        O  0.40080686  0.39721804  0.22353003    -0.52800
C316        C  0.40435922  0.41560485  0.20336015     0.70600
O317        O  0.02579607  0.41552988  0.18523679    -0.74300
O318        O  0.05407451  0.38134917  0.20349119    -0.54900
C319        C  0.04989096  0.40406164  0.18900291     0.76600
O320        O  0.42309941  0.30965717  0.20060382    -0.59500
O321        O  0.39600737  0.34588822  0.20962047    -0.52600
C322        C  0.40413665  0.32611254  0.19168001     0.73200
Zr323      Zr  0.46979039  0.32127454  0.19005760     2.54700
O324        O  0.45814294  0.33691321  0.13979545    -0.80000
O325        O  0.46190481  0.27544507  0.16452762    -0.93500
Zr326      Zr  0.47770097  0.40743809  0.19914204     2.64700
O327        O  0.47240471  0.41344313  0.14536073    -0.98400
O328        O  0.47898696  0.45866660  0.20899476    -0.80500
O329        O  0.99748379  0.35897143  0.19121686    -0.83800
O330        O  0.44946026  0.36657023  0.19926883    -2.18500
O331        O  0.44220325  0.31509307  0.31201345    -0.67200
O332        O  0.40802376  0.34248099  0.29304259    -0.51800
C333        C  0.41954508  0.32864730  0.31464784     0.71500
O334        O  0.03877654  0.39784375  0.29684270    -0.60100
O335        O  0.06193261  0.37549783  0.25884716    -0.52100
C336        C  0.06105081  0.39070108  0.28284262     0.73400
O337        O  0.44376287  0.41767024  0.30678359    -0.71500
O338        O  0.40893615  0.39697104  0.28005014    -0.50200
C339        C  0.41803947  0.41390092  0.30021772     0.74700
O340        O  0.02243179  0.29075731  0.27953922    -0.66900
O341        O  0.05142108  0.32631103  0.27359243    -0.54100
C342        C  0.04140558  0.30659755  0.28957636     0.73100
Zr343      Zr  0.47915386  0.31335092  0.27655036     2.77500
O344        O  0.48898949  0.28164267  0.31803029    -0.97600
O345        O  0.45960959  0.27086260  0.25292999    -0.78400
Zr346      Zr  0.48907071  0.39969880  0.28651280     2.70100
O347        O  0.49618465  0.39539874  0.34029028    -0.79700
O348        O  0.49439348  0.45133222  0.28740023    -0.98800
Zr349      Zr  0.02804693  0.34984989  0.23182945     2.21500
Zr350      Zr  0.42856416  0.36350669  0.24757047     2.11100
O351        O  0.46094974  0.35961543  0.28727197    -2.47400
O352        O  0.00177899  0.34961177  0.27315979    -0.79500
O353        O  0.44714520  0.31731170  0.23731707    -0.71700
O354        O  0.00875591  0.39648900  0.24036565    -2.32600
O355        O  0.99952731  0.30854314  0.22878309    -2.28800
O356        O  0.45690349  0.40525484  0.24709578    -0.73400
H357        H  0.43604212  0.36949968  0.18378491     0.78600
H358        H  0.02234123  0.41126591  0.24115344     0.79700
H359        H  0.45399846  0.36269138  0.30711979     0.81900
H360        H  0.00936708  0.29075218  0.22644395     0.79500
H361        H  0.96325833  0.46367137  0.19872249     0.42500
H362        H  0.50868087  0.45514555  0.27252992     0.41500
H363        H  0.48459811  0.41051723  0.34941631     0.41200
H364        H  0.48209811  0.29128885  0.33640317     0.39100
H365        H  0.44465828  0.26541384  0.26636552     0.42200
H366        H  0.45047923  0.26468647  0.17846281     0.37000
H367        H  0.96678843  0.35305057  0.13693619     0.43100
H368        H  0.47567338  0.43398246  0.14236818     0.39600
H369        H  0.47662742  0.26526309  0.31470016     0.44500
H370        H  0.47954283  0.26516370  0.16480505     0.43200
H371        H  0.48847756  0.40376424  0.13648760     0.43300
H372        H  0.47741421  0.45864304  0.27816497     0.43700
C373        C  0.33851103  0.43310068  0.32857314    -0.05300
C374        C  0.34962595  0.44696651  0.30405549    -0.32800
C375        C  0.37758076  0.44499287  0.29770421     0.36500
C376        C  0.39529018  0.42856388  0.31564531    -0.05700
C377        C  0.38437759  0.41556367  0.34086726    -0.32700
C378        C  0.35647431  0.41811156  0.34760157     0.36400
H379        H  0.33668875  0.46014297  0.29018521     0.16800
O380        O  0.38736427  0.45796021  0.27275999    -0.60200
H381        H  0.39713027  0.40178513  0.35429015     0.16800
O382        O  0.34695478  0.40599786  0.37306451    -0.60300
H383        H  0.34481475  0.38548092  0.36782562     0.43800
H384        H  0.38062920  0.44630285  0.25550014     0.43700
C385        C  0.14273370  0.40919406  0.31393649    -0.05300
C386        C  0.12267146  0.39973888  0.33372594    -0.32800
C387        C  0.09567713  0.39528585  0.32445511     0.36500
C388        C  0.08825289  0.39928689  0.29447433    -0.05700
C389        C  0.10853501  0.40748854  0.27414187    -0.32700
C390        C  0.13538704  0.41303553  0.28380073     0.36400
H391        H  0.12760814  0.39777029  0.35712377     0.16800
O392        O  0.07691415  0.38635061  0.34472732    -0.60200
H393        H  0.10334102  0.41029837  0.25074467     0.16800
O394        O  0.15381783  0.42368039  0.26407416    -0.60300
H395        H  0.14910656  0.44416956  0.26235098     0.43800
H396        H  0.07150086  0.40375371  0.35623460     0.43700
C397        C  0.37650288  0.05954449  0.29032256    -0.05300
C398        C  0.35157181  0.07307832  0.28237554    -0.32800
C399        C  0.32636221  0.06263977  0.29140769     0.36500
C400        C  0.32548793  0.03827236  0.30885884    -0.05700
C401        C  0.35016191  0.02371127  0.31512125    -0.32700
C402        C  0.37536995  0.03415556  0.30622414     0.36400
H403        H  0.35138920  0.09241805  0.26956845     0.16800
O404        O  0.30305484  0.07756179  0.28483430    -0.60200
H405        H  0.35010398  0.00446467  0.32808386     0.16800
O406        O  0.39862270  0.01948230  0.31356165    -0.60300
H407        H  0.40353282  0.02630613  0.33407200     0.43800
H408        H  0.29798052  0.07138686  0.26416098     0.43700
C409        C  0.12873172  0.03237986  0.30695350    -0.05300
C410        C  0.10580259  0.01404046  0.30499576    -0.32800
C411        C  0.07934008  0.02451028  0.29945272     0.36500
C412        C  0.07514518  0.05381051  0.29611376    -0.05700
C413        C  0.09817510  0.07193405  0.29769736    -0.32700
C414        C  0.12456626  0.06148369  0.30249417     0.36400
H415        H  0.10836441  0.99136403  0.30829671     0.16800
O416        O  0.05799867  0.00589684  0.29674792    -0.60200
H417        H  0.09586023  0.09456519  0.29420348     0.16800
O418        O  0.14589463  0.08016732  0.30402410    -0.60300
H419        H  0.15273767  0.08112520  0.28324304     0.43800
H420        H  0.05618823  0.00167285  0.27496007     0.43700
C421        C  0.32499166  0.44933482  0.17784228    -0.05300
C422        C  0.34825794  0.46725971  0.17897858    -0.32800
C423        C  0.37440168  0.45682387  0.18611638     0.36500
C424        C  0.37799320  0.42792909  0.19246332    -0.05700
C425        C  0.35464188  0.41025455  0.19219277    -0.32700
C426        C  0.32858166  0.42060525  0.18489265     0.36400
H427        H  0.34639632  0.48945924  0.17313671     0.16800
O428        O  0.39613220  0.47505332  0.18681093    -0.60200
H429        H  0.35662094  0.38787026  0.19728050     0.16800
O430        O  0.30710073  0.40207778  0.18327033    -0.60300
H431        H  0.30816541  0.39296742  0.16305551     0.43800
H432        H  0.39693106  0.48277810  0.20765076     0.43700
C433        C  0.12739912  0.43892657  0.15952928    -0.05300
C434        C  0.10274504  0.45444206  0.15553522    -0.32800
C435        C  0.07732375  0.44367106  0.16429453     0.36500
C436        C  0.07584551  0.41681826  0.17752040    -0.05700
C437        C  0.10069347  0.40159706  0.18172832    -0.32700
C438        C  0.12595976  0.41233142  0.17303562     0.36400
H439        H  0.10308253  0.47517861  0.14533005     0.16800
O440        O  0.05431771  0.45987155  0.16029510    -0.60200
H441        H  0.10084530  0.38084699  0.19187873     0.16800
O442        O  0.14899129  0.39623820  0.17736485    -0.60300
H443        H  0.15098269  0.38455365  0.15872737     0.43800
H444        H  0.04754721  0.45463297  0.13993433     0.43700
C445        C  0.37393330  0.07150202  0.18071263    -0.05300
C446        C  0.35657912  0.05716242  0.20019235    -0.32800
C447        C  0.32871942  0.05410340  0.19366560     0.36500
C448        C  0.31742466  0.06615527  0.16774287    -0.05700
C449        C  0.33471465  0.08126503  0.14876836    -0.32700
C450        C  0.36266184  0.08388661  0.15501127     0.36400
H451        H  0.36466720  0.04859237  0.22080696     0.16800
O452        O  0.31287061  0.03812248  0.21200346    -0.60200
H453        H  0.32677951  0.08949545  0.12794063     0.16800
O454        O  0.37861564  0.09948186  0.13643039    -0.60300
H455        H  0.38625121  0.08543792  0.12182725     0.43800
H456        H  0.31567292  0.01807816  0.20516670     0.43700
C457        C  0.12237719  0.04926319  0.15107528    -0.05300
C458        C  0.11685737  0.04333650  0.18095037    -0.32800
C459        C  0.09023148  0.04559256  0.19193299     0.36500
C460        C  0.06843260  0.05416055  0.17299666    -0.05700
C461        C  0.07374362  0.05830049  0.14272540    -0.32700
C462        C  0.10035870  0.05597026  0.13175223     0.36400
H463        H  0.13307462  0.03618632  0.19564876     0.16800
O464        O  0.08558215  0.03987939  0.22149443    -0.60200
H465        H  0.05756981  0.06477546  0.12776433     0.16800
O466        O  0.10481345  0.06096314  0.10205636    -0.60300
H467        H  0.09909477  0.04329421  0.09122505     0.43800
H468        H  0.09576379  0.05459969  0.23319247     0.43700
C469        C  0.31132462  0.34839377  0.06926090    -0.05300
C470        C  0.32549508  0.36636235  0.08973873    -0.32800
C471        C  0.32231965  0.39636583  0.08941442     0.36500
C472        C  0.30532950  0.40906189  0.06768299    -0.05700
C473        C  0.29060147  0.39068912  0.04830461    -0.32700
C474        C  0.29218139  0.36104207  0.05013765     0.36400
H475        H  0.34062887  0.35721285  0.10444791     0.16800
O476        O  0.33671873  0.41288644  0.10960802    -0.60200
H477        H  0.27777264  0.39923640  0.03114516     0.16800
O478        O  0.27797027  0.34463059  0.02963018    -0.60300
H479        H  0.26206415  0.33750367  0.04069785     0.43800
H480        H  0.35343719  0.41844552  0.09895984     0.43700
C481        C  0.33092873  0.14255408  0.05770214    -0.05300
C482        C  0.34856485  0.11844792  0.05609453    -0.32800
C483        C  0.33883145  0.09052398  0.05970776     0.36500
C484        C  0.31100571  0.08630437  0.06457914    -0.05700
C485        C  0.29415126  0.11048450  0.06916182    -0.32700
C486        C  0.30381842  0.13824265  0.06592285     0.36400
H487        H  0.36978138  0.12115694  0.05042147     0.16800
O488        O  0.35616334  0.06773738  0.05602566    -0.60200
H489        H  0.27279318  0.10783786  0.07424065     0.16800
O490        O  0.28589977  0.16067556  0.06807005    -0.60300
H491        H  0.28345681  0.16417964  0.08986852     0.43800
H492        H  0.36113389  0.06200155  0.07661880     0.43700
C493        C  0.30850440  0.40828532  0.43527472    -0.05300
C494        C  0.30273707  0.38668403  0.41352723    -0.32800
C495        C  0.30663741  0.35748945  0.41951289     0.36500
C496        C  0.31663105  0.34920213  0.44766783    -0.05700
C497        C  0.32387538  0.37109807  0.46858772    -0.32700
C498        C  0.31968482  0.40006900  0.46270906     0.36400
H499        H  0.29412890  0.39213852  0.39206921     0.16800
O500        O  0.29991373  0.33743495  0.39795725    -0.60200
H501        H  0.33243171  0.36586981  0.49020542     0.16800
O502        O  0.32563418  0.42020671  0.48446490    -0.60300
H503        H  0.34560617  0.42293383  0.48339369     0.43800
H504        H  0.28141009  0.33095241  0.40321991     0.43700
C505        C  0.30180672  0.08704282  0.42419200    -0.05300
C506        C  0.28643752  0.11238917  0.42016629    -0.32800
C507        C  0.29725556  0.13952875  0.42649151     0.36500
C508        C  0.32415059  0.14213573  0.43693623    -0.05700
C509        C  0.33994702  0.11682155  0.43953491    -0.32700
C510        C  0.32917119  0.08966267  0.43284829     0.36400
H511        H  0.26546237  0.11124445  0.41255721     0.16800
O512        O  0.28099554  0.16316048  0.42336443    -0.60200
H513        H  0.36083316  0.11789968  0.44743727     0.16800
O514        O  0.34509005  0.06588781  0.43660265    -0.60300
H515        H  0.35804502  0.06577463  0.41967992     0.43800
H516        H  0.26917110  0.16365817  0.44126852     0.43700
C517        C  0.40461691  0.33624297  0.40967424    -0.05300
C518        C  0.38229350  0.33092615  0.39007618    -0.32800
C519        C  0.38583461  0.32953165  0.35858244     0.36500
C520        C  0.41176868  0.33402694  0.34653590    -0.05700
C521        C  0.43305489  0.34234532  0.36624526    -0.32700
C522        C  0.42972454  0.34317888  0.39724746     0.36400
H523        H  0.36266071  0.32555365  0.39914336     0.16800
O524        O  0.36446723  0.32196430  0.34020106    -0.60200
H525        H  0.45308763  0.34689400  0.35763066     0.16800
O526        O  0.45150130  0.34999655  0.41541319    -0.60300
H527        H  0.46073680  0.33163126  0.41945490     0.43800
H528        H  0.36430207  0.30082661  0.34001475     0.43700
C529        C  0.39711809  0.32607803  0.15899869    -0.05300
C530        C  0.39425439  0.35174019  0.14315346    -0.32800
C531        C  0.39604795  0.35191965  0.11146328     0.36500
C532        C  0.40064574  0.32626777  0.09528443    -0.05700
C533        C  0.40082998  0.30068259  0.11118221    -0.32700
C534        C  0.39883613  0.30039227  0.14234717     0.36400
H535        H  0.39250446  0.37184601  0.15531167     0.16800
O536        O  0.39418783  0.37719938  0.09674373    -0.60200
H537        H  0.40261270  0.28044668  0.09935956     0.16800
O538        O  0.39981930  0.27471244  0.15644504    -0.60300
H539        H  0.38073969  0.27070457  0.16201047     0.43800
H540        H  0.41226102  0.38625182  0.09940159     0.43700
C541        C  0.41523450  0.17807620  0.33311002    -0.05300
C542        C  0.40392112  0.15743082  0.35170400    -0.32800
C543        C  0.40486927  0.16069156  0.38328443     0.36500
C544        C  0.41830321  0.18430117  0.39684079    -0.05700
C545        C  0.42922196  0.20485332  0.37791472    -0.32700
C546        C  0.42674092  0.20259593  0.34678805     0.36400
H547        H  0.39525330  0.13819176  0.34185061     0.16800
O548        O  0.39358954  0.14013679  0.40053213    -0.60200
H549        H  0.43964071  0.22331741  0.38719840     0.16800
O550        O  0.43704945  0.22401332  0.32985962    -0.60300
H551        H  0.42171854  0.23758859  0.32716329     0.43800
H552        H  0.37366145  0.14251896  0.39786235     0.43700
C553        C  0.40970529  0.17269010  0.08955578    -0.05300
C554        C  0.38623578  0.17588345  0.10743128    -0.32800
C555        C  0.38763651  0.17359039  0.13878068     0.36500
C556        C  0.41283648  0.16834370  0.15264456    -0.05700
C557        C  0.43549751  0.16225963  0.13442415    -0.32700
C558        C  0.43421507  0.16469912  0.10330946     0.36400
H559        H  0.36736889  0.18314784  0.09751309     0.16800
O560        O  0.36481230  0.17860918  0.15560647    -0.60200
H561        H  0.45480843  0.15682269  0.14449898     0.16800
O562        O  0.45778915  0.16279354  0.08710631    -0.60300
H563        H  0.45602063  0.14512194  0.07468153     0.43800
H564        H  0.36625123  0.19873490  0.16266584     0.43700
C565        C  0.15571908  0.38984765  0.41045826    -0.05300
C566        C  0.12772681  0.38775431  0.41473977    -0.32800
C567        C  0.11573328  0.36103071  0.41785641     0.36500
C568        C  0.13196716  0.33579369  0.41833976    -0.05700
C569        C  0.15957306  0.33778807  0.41173874    -0.32700
C570        C  0.17134443  0.36439644  0.40725933     0.36400
H571        H  0.11520220  0.40680694  0.41620431     0.16800
O572        O  0.08812404  0.35995948  0.42176574    -0.60200
H573        H  0.17238774  0.31892227  0.41158286     0.16800
O574        O  0.19852040  0.36525961  0.40059180    -0.60300
H575        H  0.19918758  0.36912118  0.37886239     0.43800
H576        H  0.08057892  0.35708352  0.40129662     0.43700
C577        C  0.13473187  0.12903667  0.42688723    -0.05300
C578        C  0.14750363  0.12656897  0.39912116    -0.32800
C579        C  0.15277639  0.09964015  0.38597815     0.36500
C580        C  0.14547834  0.07421654  0.40055696    -0.05700
C581        C  0.13066570  0.07660547  0.42700154    -0.32700
C582        C  0.12504409  0.10350062  0.44006639     0.36400
H583        H  0.15452567  0.14543769  0.38807073     0.16800
O584        O  0.16663412  0.09825068  0.35944717    -0.60200
H585        H  0.12523767  0.05759565  0.43889800     0.16800
O586        O  0.11109566  0.10430104  0.46659979    -0.60300
H587        H  0.09211695  0.09896864  0.46130549     0.43800
H588        H  0.18559423  0.10388641  0.36445907     0.43700
C589        C  0.15296673  0.40437917  0.04097985    -0.05300
C590        C  0.14509735  0.38741794  0.06501047    -0.32800
C591        C  0.13848510  0.35840869  0.06046763     0.36500
C592        C  0.13954063  0.34616403  0.03147580    -0.05700
C593        C  0.14710272  0.36333207  0.00746711    -0.32700
C594        C  0.15407496  0.39194714  0.01206660     0.36400
H595        H  0.14561033  0.39623542  0.08765493     0.16800
O596        O  0.13164922  0.34199814  0.08434680    -0.60200
H597        H  0.14747908  0.35443243  0.98485519     0.16800
O598        O  0.16320077  0.40728435  0.98837298    -0.60300
H599        H  0.14679168  0.41684300  0.98016395     0.43800
H600        H  0.11785987  0.35305583  0.09586207     0.43700
C601        C  0.16143094  0.08208366  0.04705569    -0.05300
C602        C  0.15401376  0.09730439  0.07326537    -0.32800
C603        C  0.14888591  0.12692233  0.07297398     0.36500
C604        C  0.15268978  0.14223450  0.04657496    -0.05700
C605        C  0.16226622  0.12731371  0.02113396    -0.32700
C606        C  0.16584217  0.09766375  0.02086910     0.36400
H607        H  0.15203479  0.08624298  0.09413881     0.16800
O608        O  0.13991076  0.14069091  0.09843897    -0.60200
H609        H  0.16417182  0.13832998  0.00015721     0.16800
O610        O  0.17177501  0.08388261  0.99430532    -0.60300
H611        H  0.18854022  0.09289528  0.98681131     0.43800
H612        H  0.12378115  0.12994566  0.10504856     0.43700
C613        C  0.04728016  0.30532353  0.32206679    -0.05300
C614        C  0.03925617  0.32847028  0.34068786    -0.32800
C615        C  0.03605655  0.32533681  0.37189904     0.36500
C616        C  0.04111196  0.29870516  0.38471731    -0.05700
C617        C  0.05004724  0.27596971  0.36607203    -0.32700
C618        C  0.05293210  0.27901721  0.33518520     0.36400
H619        H  0.03330974  0.34839090  0.33067375     0.16800
O620        O  0.02521068  0.34717292  0.38904922    -0.60200
H621        H  0.05433794  0.25532006  0.37542357     0.16800
O622        O  0.05955797  0.25562563  0.31771950    -0.60300
H623        H  0.07973881  0.25499218  0.31771162     0.43800
H624        H  0.03562486  0.36452522  0.38433516     0.43700
C625        C  0.03531808  0.31881464  0.07007919    -0.05300
C626        C  0.05824329  0.32740707  0.08724321    -0.32800
C627        C  0.05751160  0.32776140  0.11895318     0.36500
C628        C  0.03414930  0.31784382  0.13363100    -0.05700
C629        C  0.01104187  0.31138844  0.11614391    -0.32700
C630        C  0.01097679  0.31361129  0.08514721     0.36400
H631        H  0.07721051  0.33169605  0.07612958     0.16800
O632        O  0.08029147  0.33545603  0.13506523    -0.60200
H633        H  0.99278734  0.30378954  0.12639604     0.16800
O634        O  0.98748707  0.30768676  0.06952172    -0.60300
H635        H  0.97781108  0.32622503  0.06824751     0.43800
H636        H  0.07815251  0.35620080  0.13914120     0.43700
C637        C  0.07228050  0.14161503  0.39565555    -0.05300
C638        C  0.05701667  0.11776095  0.38733347    -0.32800
C639        C  0.05294101  0.11132310  0.35688238     0.36500
C640        C  0.06464209  0.12876800  0.33501147    -0.05700
C641        C  0.08447782  0.14822110  0.34346689    -0.32700
C642        C  0.08777482  0.15550363  0.37366108     0.36400
H643        H  0.04485649  0.10710906  0.40380597     0.16800
O644        O  0.03328974  0.09195036  0.34881198    -0.60200
H645        H  0.09329505  0.16182733  0.32682435     0.16800
O646        O  0.10136322  0.18018351  0.38070483    -0.60300
H647        H  0.11958733  0.17821313  0.37144412     0.43800
H648        H  0.04159691  0.07302931  0.35250244     0.43700
C649        C  0.06768737  0.15613390  0.08635322    -0.05300
C650        C  0.05200562  0.13255972  0.09310300    -0.32800
C651        C  0.04729324  0.12630820  0.12303577     0.36500
C652        C  0.05974462  0.14264348  0.14625190    -0.05700
C653        C  0.07911007  0.16300030  0.13921568    -0.32700
C654        C  0.08285439  0.17018602  0.10929648     0.36400
H655        H  0.04009357  0.12189726  0.07570816     0.16800
O656        O  0.02703328  0.10748383  0.12951014    -0.60200
H657        H  0.08829664  0.17609859  0.15680737     0.16800
O658        O  0.09819976  0.19364717  0.10290888    -0.60300
H659        H  0.11704876  0.18909171  0.10935777     0.43800
H660        H  0.00978142  0.11766301  0.12497874     0.43700
O661        O  0.14358137  0.19444406  0.54340412    -0.75200
O662        O  0.11479513  0.15951016  0.52639471    -0.54100
C663        C  0.13638687  0.16787912  0.53976163     0.78600
O664        O  0.02209942  0.28089242  0.53129931    -0.59800
O665        O  0.05190491  0.31456537  0.52010437    -0.52800
C666        C  0.03444188  0.30411237  0.53791860     0.70600
O667        O  0.05672463  0.19566524  0.56218605    -0.74300
O668        O  0.06710847  0.15727825  0.53265715    -0.54900
C669        C  0.06324969  0.16938207  0.55837811     0.76600
O670        O  0.13307281  0.29494299  0.53569698    -0.59500
O671        O  0.10416835  0.32028481  0.50586720    -0.52600
C672        C  0.12382259  0.31855131  0.52462382     0.73200
Zr673      Zr  0.12385723  0.24249678  0.52978268     2.54700
O674        O  0.12242484  0.24642965  0.58416229    -0.80000
O675        O  0.17326318  0.24663801  0.52931714    -0.93500
Zr676      Zr  0.04201423  0.23328979  0.52996360     2.64700
O677        O  0.02805408  0.24151831  0.58162549    -0.98400
O678        O  0.99814918  0.20931738  0.52734042    -0.80500
O679        O  0.08512941  0.21651050  0.52526531    -0.83800
O680        O  0.08006608  0.26455300  0.52906906    -2.18500
O681        O  0.13347600  0.28223530  0.92518207    -0.67200
O682        O  0.10412389  0.31318246  0.94828010    -0.51800
C683        C  0.12334871  0.30754824  0.93022463     0.71500
O684        O  0.05352046  0.18381112  0.91692688    -0.60100
O685        O  0.07011225  0.15103114  0.94906097    -0.52100
C686        C  0.06380904  0.15939232  0.92257094     0.73400
O687        O  0.03600062  0.27069449  0.91364891    -0.71500
O688        O  0.05346140  0.30890929  0.93949891    -0.50200
C689        C  0.04321915  0.29692090  0.91572374     0.74700
O690        O  0.13109041  0.18047911  0.92695322    -0.66900
O691        O  0.12079975  0.15505074  0.96762106    -0.54100
C692        C  0.12898252  0.15648216  0.94087119     0.73100
Zr693      Zr  0.12403640  0.23231151  0.94144045     2.77500
O694        O  0.13164128  0.23213299  0.88759176    -0.97600
O695        O  0.17300102  0.23073623  0.95024895    -0.78400
Zr696      Zr  0.04166157  0.22762238  0.94245801     2.70100
O697        O  0.01779901  0.21968835  0.89483361    -0.79700
O698        O  0.99478006  0.21938300  0.95709282    -0.98800
Zr699      Zr  0.08599579  0.18209633  0.99047938     2.21500
Zr700      Zr  0.07536127  0.28677037  0.48131571     2.11100
O701        O  0.08145470  0.25585162  0.93887889    -2.47400
O702        O  0.08411018  0.20934108  0.94977501    -0.79500
O703        O  0.12219927  0.26493863  0.98274605    -0.71700
O704        O  0.04167476  0.19994077  0.48890343    -2.32600
O705        O  0.12697116  0.20976262  0.98804833    -2.28800
O706        O  0.03581020  0.25792692  0.48427096    -0.73400
H707        H  0.07971560  0.27780825  0.54585304     0.78600
H708        H  0.02863656  0.18468925  0.49033209     0.79700
H709        H  0.08288338  0.26523884  0.92004756     0.81900
H710        H  0.14339501  0.19835234  0.98842732     0.79500
H711        H  0.99530152  0.20207487  0.54773270     0.42500
H712        H  0.98850577  0.23795349  0.96543829     0.41500
H713        H  0.03186752  0.22145998  0.87923386     0.41200
H714        H  0.11831906  0.24601032  0.87960692     0.39100
H715        H  0.17886911  0.25082186  0.94898532     0.42200
H716        H  0.17849021  0.24923924  0.55066807     0.37000
H717        H  0.13459781  0.26259795  0.58929287     0.43100
H718        H  0.03959871  0.25738115  0.58914117     0.39600
H719        H  0.14957670  0.24131643  0.88522502     0.44500
H720        H  0.17692707  0.26528207  0.52025545     0.43200
H721        H  0.00946126  0.24962053  0.58026392     0.43300
H722        H  0.98464082  0.21707851  0.93797445     0.43700
O723        O  0.41802375  0.21414737  0.56638141    -0.75200
O724        O  0.40779759  0.17589480  0.53627575    -0.54100
C725        C  0.41354232  0.18751012  0.56207973     0.78600
O726        O  0.32102708  0.29615587  0.55899577    -0.59800
O727        O  0.34537418  0.33107746  0.53618214    -0.52800
C728        C  0.32721242  0.32277914  0.55415306     0.70600
O729        O  0.33188973  0.19411553  0.55380282    -0.74300
O730        O  0.35783792  0.16736848  0.02472882    -0.54900
C731        C  0.34206080  0.16957000  0.54507559     0.76600
O732        O  0.42507131  0.30585968  0.55549807    -0.59500
O733        O  0.38854785  0.33251600  0.54495233    -0.52600
C734        C  0.40604457  0.32278508  0.56392649     0.73200
Zr735      Zr  0.42039499  0.25682521  0.53741280     2.54700
O736        O  0.44745843  0.26012608  0.58352127    -0.80000
O737        O  0.46652433  0.25497885  0.51801218    -0.93500
Zr738      Zr  0.33698873  0.24633377  0.54264449     2.64700
O739        O  0.33650968  0.24281345  0.59700945    -0.98400
O740        O  0.28771174  0.24215512  0.53881568    -0.80500
O741        O  0.38154562  0.22702732  0.53842750    -0.83800
O742        O  0.37563091  0.27588848  0.54207437    -2.18500
O743        O  0.41837731  0.31016746  0.95209423    -0.67200
O744        O  0.38141849  0.33668740  0.95826615    -0.51800
C745        C  0.40141007  0.32834310  0.94188004     0.71500
O746        O  0.32181116  0.19626919  0.94007846    -0.60100
O747        O  0.35134006  0.16897419  0.96685023    -0.52100
C748        C  0.33200592  0.17172393  0.94794108     0.73400
O749        O  0.31565081  0.29843467  0.93977738    -0.71500
O750        O  0.32142814  0.31498269  0.98569860    -0.50200
C751        C  0.31624746  0.31979660  0.95853167     0.74700
O752        O  0.43023908  0.21281808  0.93947763    -0.66900
O753        O  0.40054513  0.17853767  0.94831141    -0.54100
C754        C  0.41640980  0.19141190  0.93032765     0.73100
Zr755      Zr  0.41019450  0.25916559  0.94869788     2.77500
O756        O  0.39847747  0.26079422  0.89546104    -0.97600
O757        O  0.45547238  0.26634019  0.92833699    -0.78400
Zr758      Zr  0.32834117  0.24839918  0.95451454     2.70100
O759        O  0.31749392  0.24567215  0.90120812    -0.79700
O760        O  0.27986330  0.24646365  0.96504949    -0.98800
Zr761      Zr  0.38027826  0.20004673  0.99385473     2.21500
Zr762      Zr  0.36761501  0.30708255  0.00015348     2.11100
O763        O  0.36631245  0.28006013  0.95341331    -2.47400
O764        O  0.37248499  0.22757149  0.95022551    -0.79500
O765        O  0.41197781  0.28691194  0.99428473    -0.71700
O766        O  0.33546731  0.22070189  0.99796570    -2.32600
O767        O  0.41934239  0.22974961  0.99140058    -2.28800
O768        O  0.32926451  0.27525237  0.00073262    -0.73400
H769        H  0.37320511  0.28546694  0.56109695     0.78600
H770        H  0.32162864  0.20621512  0.99861966     0.79700
H771        H  0.36349881  0.29195194  0.93637964     0.81900
H772        H  0.43579081  0.21837570  0.99086207     0.79500
H773        H  0.28451486  0.23026796  0.52055786     0.42500
H774        H  0.27095067  0.24779641  0.94514505     0.41500
H775        H  0.33436412  0.25144431  0.89110432     0.41200
H776        H  0.37953231  0.26787325  0.89431765     0.39100
H777        H  0.45269254  0.27662587  0.90943592     0.42200
H778        H  0.47824200  0.25972886  0.53547820     0.37000
H779        H  0.46002440  0.24356073  0.58295684     0.43100
H780        H  0.35463105  0.24971041  0.60367183     0.39600
H781        H  0.40950497  0.27629788  0.88723139     0.44500
H782        H  0.46791032  0.27182238  0.50514066     0.43200
H783        H  0.32364183  0.25782468  0.60391943     0.43300
H784        H  0.27672083  0.22657034  0.97105662     0.43700
O785        O  0.17214436  0.05082651  0.64743199    -0.75200
O786        O  0.14642394  0.02273684  0.61576321    -0.54100
C787        C  0.14898639  0.04170792  0.63642130     0.78600
O788        O  0.27444909  0.05766837  0.55123007    -0.59800
O789        O  0.30703011  0.03649846  0.57965193    -0.52800
C790        C  0.29781530  0.05761413  0.56416662     0.70600
O791        O  0.18940870  0.04295528  0.53178017    -0.74300
O792        O  0.16100841  0.03687569  0.56980783    -0.54900
C793        C  0.17086149  0.05236870  0.54907000     0.76600
O794        O  0.26822426  0.05791164  0.65959876    -0.59500
O795        O  0.30176719  0.03074940  0.63764527    -0.52600
C796        C  0.29352948  0.05061345  0.65522167     0.73200
Zr797      Zr  0.22248464  0.04169363  0.64010756     2.54700
O798        O  0.21832420  0.09281185  0.63290814    -0.80000
O799        O  0.21700563  0.04407010  0.69428504    -0.93500
Zr800      Zr  0.23344094  0.02963726  0.55040712     2.64700
O801        O  0.22696998  0.07584868  0.52735253    -0.98400
O802        O  0.25094159  0.01148427  0.50288453    -0.80500
O803        O  0.20800847  0.02931752  0.59297356    -0.83800
O804        O  0.25224527  0.03856247  0.59888724    -2.18500
O805        O  0.27685709  0.44911087  0.66687901    -0.67200
O806        O  0.30684003  0.47593326  0.64074954    -0.51800
C807        C  0.30131738  0.45842708  0.66121859     0.71500
O808        O  0.19341577  0.42642240  0.54337804    -0.60100
O809        O  0.15815271  0.45101373  0.56469159    -0.52100
C810        C  0.16841000  0.42929809  0.55045044     0.73400
O811        O  0.28307753  0.44881045  0.54574462    -0.71500
O812        O  0.30979459  0.45722591  0.58459456    -0.50200
C813        C  0.30078643  0.43983992  0.56427422     0.74700
O814        O  0.17922322  0.44263782  0.65648328    -0.66900
O815        O  0.15087137  0.46702909  0.62508706    -0.54100
C816        C  0.15511587  0.44998357  0.64659290     0.73100
Zr817      Zr  0.22832745  0.45634069  0.64803278     2.77500
O818        O  0.23171303  0.40504991  0.65465442    -0.97600
O819        O  0.22227463  0.46519230  0.70149450    -0.78400
Zr820      Zr  0.23563231  0.44760836  0.55864845     2.70100
O821        O  0.24299789  0.39920718  0.57574284    -0.79700
O822        O  0.23674191  0.42603109  0.50878933    -0.98800
Zr823      Zr  0.17925394  0.49167447  0.59146091     2.21500
Zr824      Zr  0.28118516  0.99797072  0.60426405     2.11100
O825        O  0.25726681  0.45361353  0.60598061    -2.47400
O826        O  0.20638036  0.45070597  0.60043021    -0.79500
O827        O  0.25193825  0.00211345  0.64734235    -0.71700
O828        O  0.20692283  0.98698864  0.54975289    -2.32600
O829        O  0.19932015  0.49613723  0.64069571    -2.28800
O830        O  0.26158179  0.98926468  0.55601121    -0.73400
H831        H  0.26149553  0.05649091  0.60102993     0.78600
H832        H  0.19650652  0.98410842  0.53149766     0.79700
H833        H  0.26929906  0.43771675  0.60956712     0.81900
H834        H  0.18599477  0.49688327  0.65645601     0.79500
H835        H  0.26288439  0.02679591  0.49572465     0.42500
H836        H  0.25454513  0.43140813  0.50049307     0.41500
H837        H  0.22479086  0.39027027  0.57496825     0.41200
H838        H  0.21859888  0.39683550  0.63992922     0.39100
H839        H  0.24014807  0.47225687  0.70876855     0.42200
H840        H  0.23047252  0.03025708  0.70208294     0.37000
H841        H  0.21233663  0.09455283  0.61178979     0.43100
H842        H  0.23106171  0.09022604  0.54328118     0.39600
H843        H  0.24981012  0.39970105  0.64663280     0.44500
H844        H  0.22427185  0.06295502  0.70045599     0.43200
H845        H  0.24174484  0.07767742  0.51257619     0.43300
H846        H  0.23779804  0.40522126  0.51182246     0.43700
O847        O  0.18568552  0.05040251  0.88513849    -0.75200
O848        O  0.15190104  0.02114129  0.89533711    -0.54100
C849        C  0.16113985  0.04672722  0.89239846     0.78600
O850        O  0.27646328  0.03042115  0.81280434    -0.59800
O851        O  0.30613115  0.01557512  0.84898417    -0.52800
C852        C  0.30091263  0.02676159  0.82382035     0.70600
O853        O  0.17788076  0.02782562  0.81469423    -0.74300
O854        O  0.15039591  0.99706131  0.83928492    -0.54900
C855        C  0.15415292  0.01655033  0.82045281     0.76600
O856        O  0.26129525  0.06167198  0.92365497    -0.59500
O857        O  0.29943860  0.03730139  0.90987272    -0.52600
C858        C  0.28687204  0.06019461  0.91914001     0.73200
Zr859      Zr  0.22177150  0.03289413  0.91588811     2.54700
O860        O  0.21345240  0.08201956  0.93243843    -0.80000
O861        O  0.20126696  0.03249349  0.96518232    -0.93500
Zr862      Zr  0.22803741  0.02026329  0.82783478     2.64700
O863        O  0.22493618  0.07111164  0.81847434    -0.98400
O864        O  0.22729713  0.00723657  0.77472291    -0.80500
O865        O  0.20545265  0.01689705  0.87145105    -0.83800
O866        O  0.25110671  0.03133365  0.87396574    -2.18500
O867        O  0.27710535  0.44800198  0.95077364    -0.67200
O868        O  0.30640067  0.45603175  0.91387026    -0.51800
C869        C  0.29773853  0.44046869  0.93527249     0.71500
O870        O  0.19165044  0.41890365  0.82442736    -0.60100
O871        O  0.15739611  0.44401816  0.84769588    -0.52100
C872        C  0.16604281  0.42438838  0.83004932     0.73400
O873        O  0.28898021  0.43282615  0.83219147    -0.71500
O874        O  0.31383445  0.46538382  0.85988919    -0.50200
C875        C  0.31184386  0.44436679  0.84140405     0.74700
O876        O  0.19650120  0.41643683  0.92226398    -0.66900
O877        O  0.15920017  0.43811484  0.90288905    -0.54100
C878        C  0.17187993  0.41597797  0.91288168     0.73100
Zr879      Zr  0.23126424  0.45143912  0.93039077     2.77500
O880        O  0.23881856  0.40301429  0.94829025    -0.97600
O881        O  0.20925036  0.46248214  0.97772883    -0.78400
Zr882      Zr  0.23798038  0.43843231  0.83971199     2.70100
O883        O  0.24446106  0.38730852  0.84518837    -0.79700
O884        O  0.24182725  0.43426104  0.78549077    -0.98800
Zr885      Zr  0.17868901  0.47924924  0.87727010     2.21500
Zr886      Zr  0.28104458  0.49319643  0.88582502     2.11100
O887        O  0.25854009  0.44831745  0.88695810    -2.47400
O888        O  0.21092085  0.44244245  0.88311790    -0.79500
O889        O  0.25348549  0.49679403  0.92904976    -0.71700
O890        O  0.20611797  0.47589482  0.83261338    -2.32600
O891        O  0.19920067  0.48927553  0.92439553    -2.28800
O892        O  0.25942272  0.48330975  0.83794351    -0.73400
H893        H  0.26057711  0.04894973  0.87078997     0.78600
H894        H  0.19514504  0.47213113  0.81496567     0.79700
H895        H  0.27059163  0.43240627  0.88866399     0.81900
H896        H  0.18529790  0.49032117  0.93953812     0.79500
H897        H  0.24518243  0.99805380  0.77101315     0.42500
H898        H  0.25155056  0.41596753  0.78197958     0.41500
H899        H  0.25266431  0.38527749  0.86536600     0.41200
H900        H  0.24399572  0.39186005  0.93012529     0.39100
H901        H  0.21710884  0.48099373  0.98398102     0.42200
H902        H  0.18274687  0.04031965  0.96194007     0.37000
H903        H  0.21320854  0.09321876  0.91389424     0.43100
H904        H  0.23377747  0.07326990  0.79880141     0.39600
H905        H  0.25546337  0.40266630  0.96079176     0.44500
H906        H  0.21112495  0.04736135  0.97685837     0.43200
H907        H  0.23776732  0.08006450  0.83302647     0.43300
H908        H  0.25518259  0.44902718  0.78023052     0.43700
O909        O  0.01919322  0.06523946  0.67546952    -0.75200
O910        O  0.05167443  0.08369079  0.70693392    -0.54100
C911        C  0.04430692  0.06831932  0.68464037     0.78600
O912        O  0.43586409  0.18608316  0.69688521    -0.59800
O913        O  0.40329845  0.15451854  0.70381102    -0.52800
C914        C  0.41591686  0.17154734  0.68664170     0.70600
O915        O  0.02050089  0.15305647  0.67153883    -0.74300
O916        O  0.05566181  0.13637725  0.69926074    -0.54900
C917        C  0.04488725  0.14378622  0.67422999     0.76600
O918        O  0.42275837  0.07346031  0.68302675    -0.59500
O919        O  0.39638996  0.10110110  0.71424788    -0.52600
C920        C  0.39944635  0.08246726  0.69341407     0.73200
Zr921      Zr  0.47283392  0.08200734  0.69267266     2.54700
O922        O  0.46955088  0.08551647  0.63843020    -0.80000
O923        O  0.46823498  0.03035075  0.68944549    -0.93500
Zr924      Zr  0.48196301  0.16821774  0.70322573     2.64700
O925        O  0.48516730  0.19961678  0.66011306    -0.98400
O926        O  0.50081856  0.21400931  0.71950628    -0.80500
O927        O  0.00189202  0.12111396  0.69770641    -0.83800
O928        O  0.45251765  0.12754103  0.69810162    -2.18500
O929        O  0.42661433  0.06105361  0.78710976    -0.67200
O930        O  0.39915086  0.09604462  0.76891108    -0.51800
C931        C  0.40279452  0.07221220  0.78154679     0.71500
O932        O  0.02645722  0.14022302  0.81664484    -0.60100
O933        O  0.05885984  0.12866294  0.78245858    -0.52100
C934        C  0.05042034  0.13171780  0.80952614     0.73400
O935        O  0.43971537  0.18241098  0.78959726    -0.71500
O936        O  0.40576281  0.15221475  0.78667288    -0.50200
C937        C  0.41920659  0.17105374  0.80159696     0.74700
O938        O  0.02450125  0.05674090  0.79417205    -0.66900
O939        O  0.05416066  0.07896968  0.76351813    -0.54100
C940        C  0.04888502  0.06139790  0.78388241     0.73100
Zr941      Zr  0.47582359  0.07386479  0.78055250     2.77500
O942        O  0.47458267  0.06795530  0.83457369    -0.97600
O943        O  0.47507807  0.02253889  0.77148371    -0.78400
Zr944      Zr  0.48416569  0.16033999  0.79023991     2.70100
O945        O  0.47641955  0.16849208  0.84351341    -0.79700
O946        O  0.50636851  0.20631691  0.79735826    -0.98800
Zr947      Zr  0.03002454  0.11527205  0.73990999     2.21500
Zr948      Zr  0.42711247  0.12818070  0.74360873     2.11100
O949        O  0.45458273  0.11988737  0.78743788    -2.47400
O950        O  0.00155724  0.11542252  0.77860494    -0.79500
O951        O  0.44789286  0.08185560  0.73781442    -0.71700
O952        O  0.01439280  0.16277657  0.74687474    -2.32600
O953        O  0.00123430  0.07416319  0.73750978    -2.28800
O954        O  0.45590286  0.16900278  0.74771316    -0.73400
H955        H  0.44084339  0.12726238  0.68074924     0.78600
H956        H  0.02949501  0.17583248  0.74852455     0.79700
H957        H  0.44358287  0.11928868  0.80524512     0.81900
H958        H  0.01137987  0.05654662  0.73539501     0.79500
H959        H  0.48699970  0.22827961  0.71349927     0.42500
H960        H  0.49121061  0.22001384  0.80045281     0.41500
H961        H  0.47657220  0.14921911  0.85212103     0.41200
H962        H  0.46367005  0.08431012  0.84221267     0.39100
H963        H  0.48443734  0.01447287  0.78913187     0.42200
H964        H  0.96463474  0.02291206  0.67664888     0.37000
H965        H  0.95277972  0.09390817  0.63668620     0.43100
H966        H  0.48904728  0.18781721  0.64199901     0.39600
H967        H  0.46281329  0.05116905  0.83733633     0.44500
H968        H  0.47767296  0.02465530  0.67072432     0.43200
H969        H  0.46683345  0.20784804  0.65674794     0.43300
H970        H  0.51537694  0.20525251  0.81723854     0.43700
O971        O  0.01085867  0.30067630  0.67694048    -0.75200
O972        O  0.04398624  0.33203101  0.68308812    -0.54100
C973        C  0.02945919  0.31586574  0.66586534     0.77400
O974        O  0.42869042  0.42058358  0.69414379    -0.59800
O975        O  0.40099193  0.39602256  0.72525573    -0.52800
C976        C  0.40486931  0.41431267  0.70509255     0.70600
O977        O  0.02751276  0.41634419  0.68404378    -0.74300
O978        O  0.05571818  0.38280265  0.70393261    -0.54900
C979        C  0.05159710  0.40506209  0.68862366     0.76600
O980        O  0.42188498  0.30742246  0.70183889    -0.59500
O981        O  0.39448937  0.34327166  0.71096482    -0.52600
C982        C  0.40267012  0.32360043  0.69300242     0.73200
Zr983      Zr  0.46824062  0.31931356  0.69013234     2.54700
O984        O  0.45635457  0.33426039  0.63972819    -0.80000
O985        O  0.45889041  0.27421736  0.66371293    -0.93500
Zr986      Zr  0.47796207  0.40435827  0.70036572     2.64700
O987        O  0.47337306  0.41213588  0.64679739    -0.98400
O988        O  0.48075159  0.45533444  0.71122969    -0.80500
O989        O  0.99769027  0.36015667  0.69096168    -0.83800
O990        O  0.44805733  0.36460088  0.69919941    -2.18500
O991        O  0.43958333  0.30968903  0.81103874    -0.67200
O992        O  0.40701199  0.33983157  0.79333727    -0.51800
C993        C  0.41784726  0.32472049  0.81436387     0.71500
O994        O  0.03925846  0.40167060  0.79524414    -0.60100
O995        O  0.06257087  0.37712601  0.75878541    -0.52100
C996        C  0.06161090  0.39330741  0.78209940     0.73400
O997        O  0.44297673  0.41512509  0.80648456    -0.71500
O998        O  0.40778687  0.39292640  0.78171000    -0.50200
C999        C  0.41715052  0.41089420  0.80072125     0.74700
O1000       O  0.02169844  0.29621469  0.78216623    -0.66900
O1001       O  0.05307961  0.32817296  0.77231264    -0.54100
C1002       C  0.04073515  0.31255573  0.79101554     0.73100
Zr1003     Zr  0.47744937  0.30866285  0.77652025     2.77500
O1004       O  0.48848775  0.28405087  0.82272156    -0.97600
O1005       O  0.45930425  0.26359208  0.75732525    -0.78400
Zr1006     Zr  0.48842616  0.39596388  0.78770844     2.70100
O1007       O  0.49305572  0.38989749  0.84155602    -0.79700
O1008       O  0.49563187  0.44714761  0.79304007    -0.98800
Zr1009     Zr  0.02834036  0.35182066  0.73159771     2.21500
Zr1010     Zr  0.42773861  0.36076130  0.74797680     2.11100
O1011       O  0.46037713  0.35554459  0.78688448    -2.47400
O1012       O  0.00145404  0.35338798  0.77271210    -0.79500
O1013       O  0.44560432  0.31434241  0.73714108    -0.71700
O1014       O  0.00975655  0.39893489  0.73908685    -2.32600
O1015       O  0.99888598  0.31102945  0.73049342    -2.28800
O1016       O  0.45662304  0.40221204  0.74799011    -0.73400
H1017       H  0.43464192  0.36785788  0.68380641     0.78600
H1018       H  0.02353084  0.41351656  0.73960378     0.79700
H1019       H  0.45327401  0.35793101  0.80670194     0.81900
H1020       H  0.00850479  0.29309264  0.72832430     0.79500
H1021       H  0.99115254  0.46492538  0.69052170     0.42500
H1022       H  0.51071239  0.44915995  0.80777940     0.41500
H1023       H  0.50885366  0.40179519  0.84754420     0.41200
H1024       H  0.48621359  0.29855077  0.83896165     0.39100
H1025       H  0.45734298  0.25166005  0.77517577     0.42200
H1026       H  0.44981042  0.26238642  0.67872380     0.37000
H1027       H  0.96763507  0.35305332  0.63716796     0.43100
H1028       H  0.48370463  0.42981533  0.64339179     0.39600
H1029       H  0.47364289  0.27025300  0.82570941     0.44500
H1030       H  0.47661572  0.26459376  0.66046644     0.43200
H1031       H  0.48445742  0.39690054  0.63720346     0.43300
H1032       H  0.50364814  0.45275816  0.77378738     0.43700
C1033       C  0.33869947  0.43419593  0.83043857    -0.05300
C1034       C  0.34933108  0.44610922  0.80455178    -0.32800
C1035       C  0.37696967  0.44257301  0.79717064     0.36500
C1036       C  0.39471825  0.42664571  0.81558961    -0.05700
C1037       C  0.38430544  0.41570441  0.84210045    -0.32700
C1038       C  0.35679700  0.41984338  0.84981058     0.36400
H1039       H  0.33630066  0.45880377  0.79028743     0.16800
O1040       O  0.38646392  0.45380785  0.77113807    -0.60200
H1041       H  0.39709143  0.40240138  0.85600756     0.16800
O1042       O  0.34782901  0.41003749  0.87661401    -0.60300
H1043       H  0.34774634  0.38896956  0.87426022     0.43800
H1044       H  0.37604553  0.44421490  0.75474854     0.43700
C1045       C  0.14319602  0.40908166  0.81524395    -0.05300
C1046       C  0.12279420  0.39857312  0.83399893    -0.32800
C1047       C  0.09582276  0.39519124  0.82405680     0.36500
C1048       C  0.08876070  0.40127707  0.79440319    -0.05700
C1049       C  0.10936023  0.41047321  0.77498646    -0.32700
C1050       C  0.13616485  0.41507406  0.78542413     0.36400
H1051       H  0.12745006  0.39496552  0.85722251     0.16800
O1052       O  0.07663627  0.38525971  0.84330660    -0.60200
H1053       H  0.10444182  0.41479111  0.75180158     0.16800
O1054       O  0.15483434  0.42711063  0.76690190    -0.60300
H1055       H  0.15391141  0.44788870  0.77142300     0.43800
H1056       H  0.07056729  0.40223113  0.85512593     0.43700
C1057       C  0.37686328  0.05764928  0.78939765    -0.05300
C1058       C  0.35168505  0.06957801  0.77975604    -0.32800
C1059       C  0.32658392  0.05882958  0.78890077     0.36500
C1060       C  0.32599535  0.03552632  0.80792030    -0.05700
C1061       C  0.35103221  0.02222807  0.81560862    -0.32700
C1062       C  0.37614372  0.03311182  0.80675261     0.36400
H1063       H  0.35122731  0.08810156  0.76570220     0.16800
O1064       O  0.30305027  0.07276833  0.78110261    -0.60200
H1065       H  0.35132335  0.00388999  0.82992470     0.16800
O1066       O  0.39969614  0.02000807  0.81598856    -0.60300
H1067       H  0.40405178  0.02885558  0.83581786     0.43800
H1068       H  0.29645941  0.06280681  0.76264738     0.43700
C1069       C  0.12803747  0.02707479  0.80723789    -0.05300
C1070       C  0.10512234  0.00864135  0.80527455    -0.32800
C1071       C  0.07858720  0.01907847  0.79951039     0.36500
C1072       C  0.07444242  0.04843406  0.79595616    -0.05700
C1073       C  0.09741621  0.06649885  0.79798254    -0.32700
C1074       C  0.12371258  0.05616320  0.80307848     0.36400
H1075       H  0.10774600  0.98600293  0.80878606     0.16800
O1076       O  0.05719181  0.00048208  0.79717309    -0.60200
H1077       H  0.09515744  0.08915870  0.79477524     0.16800
O1078       O  0.14479397  0.07506356  0.80557191    -0.60300
H1079       H  0.15165994  0.07701883  0.78490654     0.43800
H1080       H  0.05637553  0.99458638  0.77572135     0.43700
C1081       C  0.32626300  0.44823433  0.67729960    -0.05300
C1082       C  0.34963363  0.46596787  0.67833802    -0.32800
C1083       C  0.37552964  0.45550925  0.68646773     0.36500
C1084       C  0.37869833  0.42681608  0.69390000    -0.05700
C1085       C  0.35514001  0.40943560  0.69394470    -0.32700
C1086       C  0.32933872  0.41980353  0.68576434     0.36400
H1087       H  0.34799191  0.48804216  0.67187247     0.16800
O1088       O  0.39740917  0.47353263  0.68715268    -0.60200
H1089       H  0.35674929  0.38724347  0.69994868     0.16800
O1090       O  0.30761636  0.40155353  0.68489063    -0.60300
H1091       H  0.30685716  0.39390083  0.66402162     0.43800
H1092       H  0.39780888  0.48185467  0.70776092     0.43700
C1093       C  0.12957062  0.43883564  0.65996971    -0.05300
C1094       C  0.10642967  0.45690245  0.66235705    -0.32800
C1095       C  0.08081483  0.44658697  0.67107778     0.36500
C1096       C  0.07751196  0.41746474  0.67684034    -0.05700
C1097       C  0.10090215  0.39960893  0.67475693    -0.32700
C1098       C  0.12653363  0.41000887  0.66664605     0.36400
H1099       H  0.10825402  0.47932475  0.65748154     0.16800
O1100       O  0.05971663  0.46542891  0.67544512    -0.60200
H1101       H  0.09948126  0.37714289  0.67956299     0.16800
O1102       O  0.14836071  0.39168721  0.66485620    -0.60300
H1103       H  0.14490390  0.37945953  0.64684407     0.43800
H1104       H  0.05000059  0.46604630  0.65591669     0.43700
C1105       C  0.37318467  0.07198226  0.68151783    -0.05300
C1106       C  0.35735674  0.05468304  0.69983214    -0.32800
C1107       C  0.32942181  0.05090360  0.69420780     0.36500
C1108       C  0.31657343  0.06488636  0.67024646    -0.05700
C1109       C  0.33224511  0.08298836  0.65263707    -0.32700
C1110       C  0.36020262  0.08661888  0.65814311     0.36400
H1111       H  0.36664390  0.04449579  0.71896417     0.16800
O1112       O  0.31492811  0.03283838  0.71176070    -0.60200
H1113       H  0.32309566  0.09293178  0.63327541     0.16800
O1114       O  0.37449747  0.10527478  0.64112759    -0.60300
H1115       H  0.38486635  0.09316801  0.62671088     0.43800
H1116       H  0.31479096  0.01425111  0.70081737     0.43700
C1117       C  0.12259590  0.05107068  0.64890606    -0.05300
C1118       C  0.11628871  0.04312537  0.67800340    -0.32800
C1119       C  0.08945293  0.04473295  0.68834209     0.36500
C1120       C  0.06817683  0.05500772  0.66974156    -0.05700
C1121       C  0.07424686  0.06147131  0.64009599    -0.32700
C1122       C  0.10111048  0.05939454  0.62958735     0.36400
H1123       H  0.13204651  0.03461317  0.69247623     0.16800
O1124       O  0.08402267  0.03667891  0.71708080    -0.60200
H1125       H  0.05845531  0.06906566  0.62528758     0.16800
O1126       O  0.10631808  0.06593879  0.60040564    -0.60300
H1127       H  0.09888849  0.04984345  0.58818161     0.43800
H1128       H  0.09391163  0.05038452  0.73037772     0.43700
C1129       C  0.31165120  0.34746971  0.56608583    -0.05300
C1130       C  0.32375495  0.36488692  0.58860126    -0.32800
C1131       C  0.32063118  0.39490378  0.58870404     0.36500
C1132       C  0.30609294  0.40822986  0.56529964    -0.05700
C1133       C  0.29350360  0.39046365  0.54357760    -0.32700
C1134       C  0.29483927  0.36072816  0.54481668     0.36400
H1135       H  0.33740571  0.35538488  0.60477678     0.16800
O1136       O  0.33257080  0.41085264  0.61123742    -0.60200
H1137       H  0.28263340  0.39958028  0.52503510     0.16800
O1138       O  0.28311751  0.34482437  0.52204879    -0.60300
H1139       H  0.26353227  0.34389284  0.52709868     0.43800
H1140       H  0.35048369  0.41655019  0.60331699     0.43700
C1141       C  0.33205864  0.14215272  0.55727247    -0.05300
C1142       C  0.34964036  0.11804921  0.55789737    -0.32800
C1143       C  0.33952818  0.09023059  0.56154561     0.36500
C1144       C  0.31141238  0.08607733  0.56442264    -0.05700
C1145       C  0.29436127  0.11045747  0.56641622    -0.32700
C1146       C  0.30432960  0.13805172  0.56277351     0.36400
H1147       H  0.37120441  0.12063426  0.55391254     0.16800
O1148       O  0.35693806  0.06735158  0.55971198    -0.60200
H1149       H  0.27267497  0.10806971  0.56967919     0.16800
O1150       O  0.28626687  0.16038867  0.56150578    -0.60300
H1151       H  0.28566709  0.16844855  0.58220004     0.43800
H1152       H  0.36319573  0.06427153  0.58057172     0.43700
C1153       C  0.30821316  0.41064743  0.93926040    -0.05300
C1154       C  0.30434559  0.38980819  0.91621823    -0.32800
C1155       C  0.30678577  0.36027523  0.92156749     0.36500
C1156       C  0.31337405  0.35076314  0.95042646    -0.05700
C1157       C  0.31837227  0.37182638  0.97302238    -0.32700
C1158       C  0.31569507  0.40113113  0.96775066     0.36400
H1159       H  0.29828502  0.39615581  0.89404019     0.16800
O1160       O  0.30220166  0.34106927  0.89853400    -0.60200
H1161       H  0.32413302  0.36573155  0.99540619     0.16800
O1162       O  0.31935741  0.42034761  0.99101274    -0.60300
H1163       H  0.33921076  0.42029861  0.99526496     0.43800
H1164       H  0.28213264  0.33904713  0.89731979     0.43700
C1165       C  0.30086323  0.08811131  0.92271840    -0.05300
C1166       C  0.28678219  0.11303396  0.91384183    -0.32800
C1167       C  0.29690432  0.14047322  0.92032892     0.36500
C1168       C  0.32161948  0.14358957  0.93605431    -0.05700
C1169       C  0.33640263  0.11839135  0.94316427    -0.32700
C1170       C  0.32630891  0.09107183  0.93657209     0.36400
H1171       H  0.26729254  0.11123438  0.90240782     0.16800
O1172       O  0.28213143  0.16386339  0.91180793    -0.60200
H1173       H  0.35579294  0.11963400  0.95483365     0.16800
O1174       O  0.34057236  0.06760884  0.94582768    -0.60300
H1175       H  0.35092678  0.06093558  0.92802188     0.43800
H1176       H  0.26920059  0.16767330  0.92837093     0.43700
C1177       C  0.40312914  0.33539422  0.90953184    -0.05300
C1178       C  0.38063777  0.33120502  0.88990436    -0.32800
C1179       C  0.38427110  0.32852854  0.85847738     0.36500
C1180       C  0.41059104  0.33014573  0.84645286    -0.05700
C1181       C  0.43236954  0.33703188  0.86607188    -0.32700
C1182       C  0.42884431  0.33963829  0.89702762     0.36400
H1183       H  0.36057408  0.32790041  0.89899083     0.16800
O1184       O  0.36237344  0.32276532  0.84016292    -0.60200
H1185       H  0.45272660  0.33966391  0.85742121     0.16800
O1186       O  0.45084559  0.34600709  0.91509783    -0.60300
H1187       H  0.46193318  0.32830758  0.91570956     0.43800
H1188       H  0.36131783  0.30167170  0.83894534     0.43700
C1189       C  0.39569687  0.32376602  0.66038184    -0.05300
C1190       C  0.39325408  0.34958763  0.64477170    -0.32800
C1191       C  0.39568727  0.35006029  0.61318921     0.36500
C1192       C  0.40053252  0.32452446  0.59688012    -0.05700
C1193       C  0.40012854  0.29875158  0.61248708    -0.32700
C1194       C  0.39735922  0.29819992  0.64357214     0.36400
H1195       H  0.39151948  0.36960766  0.65709949     0.16800
O1196       O  0.39476133  0.37557725  0.59884712    -0.60200
H1197       H  0.40232280  0.27859895  0.60055570     0.16800
O1198       O  0.39771740  0.27242783  0.65751449    -0.60300
H1199       H  0.37833405  0.26685605  0.65894053     0.43800
H1200       H  0.41374008  0.38267424  0.59940557     0.43700
C1201       C  0.41415295  0.17733513  0.83392035    -0.05300
C1202       C  0.40324017  0.15658010  0.85270437    -0.32800
C1203       C  0.40388647  0.16029864  0.88421856     0.36500
C1204       C  0.41662909  0.18445832  0.89744518    -0.05700
C1205       C  0.42734324  0.20496563  0.87833796    -0.32700
C1206       C  0.42512673  0.20223523  0.84727236     0.36400
H1207       H  0.39498271  0.13705686  0.84305005     0.16800
O1208       O  0.39282982  0.13980535  0.90173806    -0.60200
H1209       H  0.43712209  0.22390564  0.88740156     0.16800
O1210       O  0.43497582  0.22369771  0.83007361    -0.60300
H1211       H  0.41995357  0.23785387  0.82890497     0.43800
H1212       H  0.37296705  0.14361384  0.90127222     0.43700
C1213       C  0.41148984  0.17168466  0.59009863    -0.05300
C1214       C  0.38760645  0.17592795  0.60708858    -0.32800
C1215       C  0.38801022  0.17444056  0.63854333     0.36500
C1216       C  0.41265063  0.16895870  0.65347709    -0.05700
C1217       C  0.43574998  0.16209535  0.63618164    -0.32700
C1218       C  0.43535019  0.16339991  0.60490547     0.36400
H1219       H  0.36925762  0.18356819  0.59636346     0.16800
O1220       O  0.36484485  0.18055722  0.65440808    -0.60200
H1221       H  0.45478003  0.15678746  0.64696875     0.16800
O1222       O  0.45916243  0.15998600  0.58935276    -0.60300
H1223       H  0.46387545  0.13947245  0.59073608     0.43800
H1224       H  0.36406475  0.20166001  0.65603370     0.43700
C1225       C  0.15884883  0.38759483  0.91227407    -0.05300
C1226       C  0.13067799  0.38532223  0.91436607    -0.32800
C1227       C  0.11848178  0.35859483  0.91562022     0.36500
C1228       C  0.13468298  0.33341794  0.91676545    -0.05700
C1229       C  0.16264824  0.33549372  0.91221339    -0.32700
C1230       C  0.17473495  0.36224564  0.90953453     0.36400
H1231       H  0.11804368  0.40430908  0.91553438     0.16800
O1232       O  0.09069328  0.35746486  0.91811515    -0.60200
H1233       H  0.17542768  0.31661017  0.91272066     0.16800
O1234       O  0.20230490  0.36329609  0.90520664    -0.60300
H1235       H  0.20458918  0.36279591  0.88315966     0.43800
H1236       H  0.08354384  0.36033597  0.89757202     0.43700
C1237       C  0.13426864  0.12802781  0.92603647    -0.05300
C1238       C  0.14666930  0.12585636  0.89803104    -0.32800
C1239       C  0.15277851  0.09902879  0.88509289     0.36500
C1240       C  0.14600799  0.07346920  0.89977748    -0.05700
C1241       C  0.13170010  0.07557199  0.92654321    -0.32700
C1242       C  0.12581210  0.10226782  0.93970723     0.36400
H1243       H  0.15269019  0.14492156  0.88661206     0.16800
O1244       O  0.16670720  0.09795728  0.85859711    -0.60200
H1245       H  0.12691628  0.05647191  0.93861810     0.16800
O1246       O  0.11274845  0.10261144  0.96676984    -0.60300
H1247       H  0.09326050  0.09944179  0.96185528     0.43800
H1248       H  0.18553902  0.10401068  0.86367192     0.43700
C1249       C  0.15197391  0.40373527  0.54395961    -0.05300
C1250       C  0.14650608  0.38533071  0.56766891    -0.32800
C1251       C  0.13870280  0.35683734  0.56204974     0.36500
C1252       C  0.13621441  0.34649748  0.53237259    -0.05700
C1253       C  0.14149235  0.36509703  0.50877645    -0.32700
C1254       C  0.14961753  0.39324572  0.51437724     0.36400
H1255       H  0.14966191  0.39265256  0.59062046     0.16800
O1256       O  0.13381681  0.33926333  0.58553806    -0.60200
H1257       H  0.13945988  0.35763038  0.48572246     0.16800
O1258       O  0.15656243  0.40997477  0.49083342    -0.60300
H1259       H  0.13917748  0.41839894  0.48372394     0.43800
H1260       H  0.11724493  0.34705580  0.59528176     0.43700
C1261       C  0.16365416  0.08334115  0.54742076    -0.05300
C1262       C  0.15674785  0.09877070  0.57369921    -0.32800
C1263       C  0.15149108  0.12840091  0.57330979     0.36500
C1264       C  0.15442117  0.14347260  0.54663843    -0.05700
C1265       C  0.16410450  0.12849835  0.52124151    -0.32700
C1266       C  0.16801914  0.09884823  0.52114546     0.36400
H1267       H  0.15525261  0.08785056  0.59470468     0.16800
O1268       O  0.14328182  0.14249075  0.59893843    -0.60200
H1269       H  0.16588180  0.13942800  0.50021595     0.16800
O1270       O  0.17429771  0.08499350  0.49468763    -0.60300
H1271       H  0.19116696  0.09400165  0.48747964     0.43800
H1272       H  0.12809594  0.13121355  0.60700657     0.43700
C1273       C  0.04465227  0.31656616  0.82372472    -0.05300
C1274       C  0.02212338  0.32522153  0.84105619    -0.32800
C1275       C  0.02207658  0.32196594  0.87219930     0.36500
C1276       C  0.04520479  0.31111270  0.88664028    -0.05700
C1277       C  0.06880458  0.30553131  0.86961723    -0.32700
C1278       C  0.06859585  0.30802508  0.83834402     0.36400
H1279       H  0.00369374  0.33256871  0.83011758     0.16800
O1280       O  0.99859694  0.32696832  0.88781228    -0.60200
H1281       H  0.08675399  0.29668574  0.88020199     0.16800
O1282       O  0.09082787  0.29920895  0.82219646    -0.60300
H1283       H  0.10125732  0.31682391  0.81860889     0.43800
H1284       H  0.00212328  0.34462658  0.89978472     0.43700
C1285       C  0.03113748  0.31602542  0.56880337    -0.05300
C1286       C  0.05389452  0.32623484  0.58517222    -0.32800
C1287       C  0.05361702  0.32768445  0.61684195     0.36500
C1288       C  0.03110448  0.31703499  0.63246821    -0.05700
C1289       C  0.00801605  0.30873367  0.61568615    -0.32700
C1290       C  0.00737661  0.30989777  0.58455126     0.36400
H1291       H  0.07242446  0.33142574  0.57356185     0.16800
O1292       O  0.07597051  0.33780439  0.63212805    -0.60200
H1293       H  0.99015217  0.30093307  0.62664998     0.16800
O1294       O  0.98378088  0.30305153  0.56958957    -0.60300
H1295       H  0.97526728  0.32165470  0.56488381     0.43800
H1296       H  0.07385335  0.35883557  0.63223792     0.43700
C1297       C  0.07188243  0.14301110  0.89548485    -0.05300
C1298       C  0.05998844  0.11685135  0.88785664    -0.32800
C1299       C  0.05831723  0.10825484  0.85755962     0.36500
C1300       C  0.06827596  0.12625779  0.83518675    -0.05700
C1301       C  0.08536146  0.14853825  0.84348780    -0.32700
C1302       C  0.08637705  0.15774109  0.87335441     0.36400
H1303       H  0.04893235  0.10517095  0.90446712     0.16800
O1304       O  0.04214169  0.08558344  0.84962448    -0.60200
H1305       H  0.09323333  0.16241261  0.82652053     0.16800
O1306       O  0.09732367  0.18398329  0.87978821    -0.60300
H1307       H  0.11616081  0.18309686  0.87200241     0.43800
H1308       H  0.05280586  0.06843299  0.85508666     0.43700
C1309       C  0.06732121  0.15362257  0.58597537    -0.05300
C1310       C  0.04959560  0.13158713  0.59248178    -0.32800
C1311       C  0.04450803  0.12532165  0.62233097     0.36500
C1312       C  0.05882980  0.13974118  0.64572812    -0.05700
C1313       C  0.07969798  0.15837485  0.63880179    -0.32700
C1314       C  0.08341648  0.16607004  0.60906989     0.36400
H1315       H  0.03680320  0.12228518  0.57499551     0.16800
O1316       O  0.02297915  0.10795479  0.62866155    -0.60200
H1317       H  0.09028842  0.17006780  0.65651462     0.16800
O1318       O  0.10101174  0.18775167  0.60297555    -0.60300
H1319       H  0.09143206  0.20550075  0.60935675     0.43800
H1320       H  0.00636083  0.11936013  0.62445187     0.43700
O1321       O  0.14414465  0.69343980  0.04575166    -0.75200
O1322       O  0.11574997  0.65864848  0.02748670    -0.54100
C1323       C  0.13692267  0.66697118  0.04171719     0.78600
O1324       O  0.02408557  0.78075974  0.03085437    -0.59800
O1325       O  0.05450598  0.81399370  0.02072799    -0.52800
C1326       C  0.03677636  0.80358399  0.03820843     0.70600
O1327       O  0.05465978  0.69294186  0.06168998    -0.74300
O1328       O  0.06607251  0.65517830  0.03171217    -0.54900
C1329       C  0.06131727  0.66675991  0.05741017     0.76600
O1330       O  0.13300323  0.79386038  0.03922254    -0.59500
O1331       O  0.10572568  0.81866661  0.00723676    -0.52600
C1332       C  0.12422982  0.81738401  0.02740998     0.73200
Zr1333     Zr  0.12515069  0.74119924  0.03096555     2.54700
O1334       O  0.12728095  0.74366612  0.08545587    -0.80000
O1335       O  0.17398922  0.74759659  0.02538060    -0.93500
Zr1336     Zr  0.04317945  0.73277605  0.03113053     2.64700
O1337       O  0.03197430  0.74229350  0.08341260    -0.98400
O1338       O  0.99844520  0.71067214  0.03015570    -0.80500
O1339       O  0.08617666  0.71519838  0.02683152    -0.83800
O1340       O  0.08158070  0.76341054  0.02994916    -2.18500
O1341       O  0.13147109  0.78380687  0.42476868    -0.67200
O1342       O  0.10266092  0.81449521  0.44915212    -0.51800
C1343       C  0.12145733  0.80906663  0.43045920     0.71500
O1344       O  0.05441445  0.68415309  0.41560612    -0.60100
O1345       O  0.07000476  0.65120240  0.44813558    -0.52100
C1346       C  0.06420469  0.65958881  0.42154910     0.73400
O1347       O  0.03461082  0.77053863  0.41324388    -0.71500
O1348       O  0.05251064  0.80863461  0.43888280    -0.50200
C1349       C  0.04214998  0.79670136  0.41515940     0.74700
O1350       O  0.13122354  0.68172757  0.42545347    -0.66900
O1351       O  0.12196457  0.65612152  0.46622149    -0.54100
C1352       C  0.12949058  0.65765162  0.43929074     0.73100
Zr1353     Zr  0.12348163  0.73340427  0.44032464     2.77500
O1354       O  0.12895999  0.73331295  0.38614914    -0.97600
O1355       O  0.17274118  0.73364962  0.44694397    -0.78400
Zr1356     Zr  0.04127678  0.72715278  0.44163787     2.70100
O1357       O  0.01656471  0.72246905  0.39416267    -0.79700
O1358       O  0.99536805  0.71406968  0.45597769    -0.98800
Zr1359     Zr  0.08661534  0.68209349  0.48914379     2.21500
Zr1360     Zr  0.07715079  0.78540461  0.98201228     2.11100
O1361       O  0.08054901  0.75607292  0.43830713    -2.47400
O1362       O  0.08407592  0.70954475  0.44857673    -0.79500
O1363       O  0.12118824  0.76560710  0.48204223    -0.71700
O1364       O  0.04252567  0.69908122  0.99044488    -2.32600
O1365       O  0.12709128  0.71039467  0.48665854    -2.28800
O1366       O  0.03705486  0.75739084  0.98527234    -0.73400
H1367       H  0.08131422  0.77672508  0.04671446     0.78600
H1368       H  0.02924570  0.68406509  0.99202851     0.79700
H1369       H  0.08176681  0.76557303  0.41955053     0.81900
H1370       H  0.14375058  0.69936426  0.48697342     0.79500
H1371       H  0.99578858  0.70395209  0.05079152     0.42500
H1372       H  0.98485537  0.73205155  0.45508611     0.41500
H1373       H  0.03075610  0.72211196  0.37852973     0.41200
H1374       H  0.11586834  0.74779136  0.37891287     0.39100
H1375       H  0.17878589  0.75097364  0.43666551     0.42200
H1376       H  0.17976861  0.75796260  0.04389107     0.37000
H1377       H  0.11071604  0.75441148  0.09139462     0.43100
H1378       H  0.04370259  0.75843571  0.08974700     0.39600
H1379       H  0.14709239  0.74182771  0.38304085     0.44500
H1380       H  0.17571696  0.76172070  0.00935690     0.43200
H1381       H  0.01323213  0.75011939  0.08300511     0.43300
H1382       H  0.98831743  0.70217184  0.43907971     0.43700
O1383       O  0.41580256  0.71436805  0.06658099    -0.75200
O1384       O  0.40564789  0.67668091  0.03571818    -0.54100
C1385       C  0.41135744  0.68785569  0.06167691     0.78600
O1386       O  0.32153514  0.79873925  0.06009984    -0.59800
O1387       O  0.34659929  0.83358773  0.03810306    -0.52800
C1388       C  0.32827697  0.82532257  0.05585778     0.70600
O1389       O  0.33054221  0.69648779  0.05568743    -0.74300
O1390       O  0.36021294  0.66612062  0.52492003    -0.54900
C1391       C  0.34011974  0.67183396  0.04660346     0.76600
O1392       O  0.42590739  0.80591319  0.05515768    -0.59500
O1393       O  0.38993578  0.83376422  0.04609500    -0.52600
C1394       C  0.40771107  0.82344572  0.06441629     0.73200
Zr1395     Zr  0.41911678  0.75689323  0.03794404     2.54700
O1396       O  0.44672692  0.75603238  0.08375749    -0.80000
O1397       O  0.46486343  0.75362057  0.01785237    -0.93500
Zr1398     Zr  0.33702625  0.74851007  0.04454891     2.64700
O1399       O  0.34061107  0.74709086  0.09900281    -0.98400
O1400       O  0.28763193  0.74534992  0.04670698    -0.80500
O1401       O  0.37967221  0.73173641  0.03376845    -0.83800
O1402       O  0.37547923  0.77798650  0.04411231    -2.18500
O1403       O  0.42071518  0.80974153  0.45299244    -0.67200
O1404       O  0.38364045  0.83612610  0.45981478    -0.51800
C1405       C  0.40373987  0.82826860  0.44336797     0.71500
O1406       O  0.32537955  0.69399595  0.43982382    -0.60100
O1407       O  0.35551251  0.66654731  0.46569247    -0.52100
C1408       C  0.33586424  0.66938479  0.44715477     0.73400
O1409       O  0.31798389  0.79660556  0.43880331    -0.71500
O1410       O  0.32335164  0.81422377  0.48450628    -0.50200
C1411       C  0.31830603  0.81836240  0.45713634     0.74700
O1412       O  0.43314195  0.71250265  0.44024883    -0.66900
O1413       O  0.40375345  0.67780248  0.44819202    -0.54100
C1414       C  0.41941566  0.69125073  0.43051232     0.73100
Zr1415     Zr  0.41254212  0.75858126  0.44927771     2.77500
O1416       O  0.39976578  0.76071275  0.39637205    -0.97600
O1417       O  0.45619212  0.76744396  0.42587441    -0.78400
Zr1418     Zr  0.33117885  0.74651256  0.45356756     2.70100
O1419       O  0.32451855  0.74441461  0.39947531    -0.79700
O1420       O  0.28214872  0.74234154  0.45955962    -0.98800
Zr1421     Zr  0.38303231  0.69851265  0.49376965     2.21500
Zr1422     Zr  0.36908741  0.80566819  0.50045505     2.11100
O1423       O  0.36856977  0.77898383  0.45361772    -2.47400
O1424       O  0.37546758  0.72605207  0.44999846    -0.79500
O1425       O  0.41374891  0.78594785  0.49515576    -0.71700
O1426       O  0.33782901  0.71850272  0.49701420    -2.32600
O1427       O  0.42204120  0.72854377  0.49174872    -2.28800
O1428       O  0.33084179  0.77356425  0.49983924    -0.73400
H1429       H  0.37347140  0.78746656  0.06333181     0.78600
H1430       H  0.32410865  0.70389087  0.49754033     0.79700
H1431       H  0.36598429  0.79118937  0.43677410     0.81900
H1432       H  0.43866148  0.71746656  0.49151199     0.79500
H1433       H  0.28328158  0.72647918  0.03761169     0.42500
H1434       H  0.27936571  0.72234619  0.46544383     0.41500
H1435       H  0.30545011  0.73807465  0.39669204     0.41200
H1436       H  0.37999519  0.76476422  0.39555603     0.39100
H1437       H  0.46685328  0.77812779  0.44127396     0.42200
H1438       H  0.47650564  0.75981471  0.03487267     0.37000
H1439       H  0.46007568  0.74034357  0.08088168     0.43100
H1440       H  0.33365297  0.72816895  0.10449656     0.39600
H1441       H  0.40853138  0.77809859  0.38898663     0.44500
H1442       H  0.46608187  0.76939021  0.00358022     0.43200
H1443       H  0.36040034  0.74613153  0.10324177     0.43300
H1444       H  0.27803670  0.75379053  0.47785736     0.43700
O1445       O  0.16981987  0.54652278  0.14928003    -0.75200
O1446       O  0.14475494  0.51957755  0.11591597    -0.54100
C1447       C  0.14683863  0.53740082  0.13770661     0.78600
O1448       O  0.27214917  0.56064980  0.05358243    -0.59800
O1449       O  0.30504474  0.53860397  0.08069959    -0.52800
C1450       C  0.29559437  0.56025545  0.06621561     0.70600
O1451       O  0.18779036  0.54180705  0.03185787    -0.74300
O1452       O  0.15912321  0.53546933  0.06940482    -0.54900
C1453       C  0.16927189  0.55125409  0.04910689     0.76600
O1454       O  0.26681142  0.55523257  0.16126768    -0.59500
O1455       O  0.30100540  0.53080867  0.13715639    -0.52600
C1456       C  0.29234684  0.54919372  0.15614224     0.73200
Zr1457     Zr  0.22066564  0.53990441  0.14127247     2.54700
O1458       O  0.21478896  0.59090311  0.13451546    -0.80000
O1459       O  0.21725349  0.54452576  0.19557417    -0.93500
Zr1460     Zr  0.23215399  0.53131418  0.05125107     2.64700
O1461       O  0.22579357  0.57832416  0.03007198    -0.98400
O1462       O  0.25131035  0.51537953  0.00367391    -0.80500
O1463       O  0.20649054  0.52901567  0.09363861    -0.83800
O1464       O  0.25048035  0.53899085  0.10013147    -2.18500
O1465       O  0.27617338  0.95096886  0.16908533    -0.67200
O1466       O  0.30556794  0.97829455  0.14288316    -0.51800
C1467       C  0.30049542  0.96056004  0.16326091     0.71500
O1468       O  0.19338114  0.92414728  0.05072857    -0.60100
O1469       O  0.15760812  0.95167068  0.06625208    -0.52100
C1470       C  0.16809181  0.92836734  0.05534691     0.73400
O1471       O  0.28206028  0.95011116  0.04712925    -0.71500
O1472       O  0.30929791  0.95936173  0.08538818    -0.50200
C1473       C  0.30040320  0.94177544  0.06523366     0.74700
O1474       O  0.17828632  0.94514384  0.15928093    -0.66900
O1475       O  0.15026050  0.96783213  0.12616666    -0.54100
C1476       C  0.15425108  0.95155094  0.14835555     0.73100
Zr1477     Zr  0.22760208  0.95869254  0.15065601     2.77500
O1478       O  0.22880607  0.90728771  0.15693587    -0.97600
O1479       O  0.22406383  0.96795087  0.20436103    -0.78400
Zr1480     Zr  0.23515892  0.94793044  0.06176747     2.70100
O1481       O  0.24468885  0.90084697  0.08141222    -0.79700
O1482       O  0.23373359  0.92534672  0.01248645    -0.98800
Zr1483     Zr  0.17871623  0.99265336  0.09285619     2.21500
Zr1484     Zr  0.27989377  0.49868188  0.10384603     2.11100
O1485       O  0.25697044  0.95488018  0.10881233    -2.47400
O1486       O  0.20582824  0.95223284  0.10321035    -0.79500
O1487       O  0.25044469  0.50036938  0.14694370    -0.71700
O1488       O  0.20631206  0.48832655  0.04904600    -2.32600
O1489       O  0.19868861  0.99840128  0.14206401    -2.28800
O1490       O  0.26082594  0.49115363  0.05515758    -0.73400
H1491       H  0.25946779  0.55697373  0.10309789     0.78600
H1492       H  0.19581483  0.48606757  0.03076178     0.79700
H1493       H  0.26941882  0.93935564  0.11256692     0.81900
H1494       H  0.18522619  0.99944522  0.15767043     0.79500
H1495       H  0.26766060  0.52729678  0.00113180     0.42500
H1496       H  0.25124430  0.93070449  0.00349165     0.41500
H1497       H  0.22692246  0.89396453  0.08854664     0.41200
H1498       H  0.24601178  0.90097037  0.14743402     0.39100
H1499       H  0.23791098  0.98274178  0.20879353     0.42200
H1500       H  0.21624776  0.56534133  0.19958354     0.37000
H1501       H  0.23347567  0.59811750  0.13167211     0.43100
H1502       H  0.22984985  0.59224359  0.04646147     0.39600
H1503       H  0.23202973  0.90485944  0.17865485     0.44500
H1504       H  0.19885723  0.53748749  0.20031978     0.43200
H1505       H  0.24045762  0.58068243  0.01525142     0.43300
H1506       H  0.23494244  0.90458485  0.01577417     0.43700
O1507       O  0.18717081  0.55248973  0.38619241    -0.75200
O1508       O  0.15304304  0.52267461  0.39398348    -0.54100
C1509       C  0.16234715  0.54830793  0.39199002     0.78600
O1510       O  0.27652505  0.53010760  0.31068515    -0.59800
O1511       O  0.30607155  0.51540907  0.34705917    -0.52800
C1512       C  0.30082252  0.52666399  0.32191362     0.70600
O1513       O  0.17885004  0.53015549  0.31253259    -0.74300
O1514       O  0.15116416  0.49990400  0.33735812    -0.54900
C1515       C  0.15504458  0.51928972  0.31845730     0.76600
O1516       O  0.26335517  0.55989015  0.42257260    -0.59500
O1517       O  0.30104709  0.53515167  0.40826554    -0.52600
C1518       C  0.28891786  0.55817941  0.41796099     0.73200
Zr1519     Zr  0.22313874  0.53206169  0.41491781     2.54700
O1520       O  0.21747023  0.58058476  0.43466404    -0.80000
O1521       O  0.20353085  0.53047360  0.46468001    -0.93500
Zr1522     Zr  0.22845133  0.52086863  0.32614907     2.64700
O1523       O  0.22782319  0.57204038  0.31809697    -0.98400
O1524       O  0.22660993  0.50900844  0.27271355    -0.80500
O1525       O  0.20562513  0.51861126  0.36985367    -0.83800
O1526       O  0.25183852  0.53052186  0.37248715    -2.18500
O1527       O  0.27524061  0.94531493  0.44780584    -0.67200
O1528       O  0.30541029  0.95436612  0.41203581    -0.51800
C1529       C  0.29631522  0.93830206  0.43274527     0.71500
O1530       O  0.19189620  0.92172924  0.31901514    -0.60100
O1531       O  0.15762099  0.94705125  0.34184393    -0.52100
C1532       C  0.16630126  0.92776188  0.32376010     0.73400
O1533       O  0.28895683  0.93479324  0.32996989    -0.71500
O1534       O  0.31391407  0.96439681  0.36102390    -0.50200
C1535       C  0.31193578  0.94481475  0.34094324     0.74700
O1536       O  0.19489374  0.91612104  0.41686868    -0.66900
O1537       O  0.15798227  0.93895159  0.39818064    -0.54100
C1538       C  0.17027847  0.91640618  0.40758155     0.73100
Zr1539     Zr  0.22970050  0.95027703  0.42678493     2.77500
O1540       O  0.23660909  0.90175876  0.44458022    -0.97600
O1541       O  0.20719968  0.95911153  0.47433525    -0.78400
Zr1542     Zr  0.23756456  0.94047846  0.33697028     2.70100
O1543       O  0.24208959  0.88916554  0.34275035    -0.79700
O1544       O  0.24298244  0.93677135  0.28281494    -0.98800
Zr1545     Zr  0.17852713  0.98048468  0.37465800     2.21500
Zr1546     Zr  0.28071064  0.99255562  0.38519015     2.11100
O1547       O  0.25822343  0.94746181  0.38443433    -2.47400
O1548       O  0.21255095  0.94854326  0.37933297    -0.79500
O1549       O  0.25307069  0.99497113  0.42853412    -0.71700
O1550       O  0.20577611  0.97834443  0.32983402    -2.32600
O1551       O  0.19774638  0.98859812  0.42295185    -2.28800
O1552       O  0.25967216  0.98510304  0.33638608    -0.73400
H1553       H  0.26157948  0.54804039  0.36961293     0.78600
H1554       H  0.19506614  0.97553485  0.31180937     0.79700
H1555       H  0.26998574  0.93110598  0.38570363     0.81900
H1556       H  0.18363873  0.98924018  0.43785912     0.79500
H1557       H  0.24583956  0.50727339  0.26644343     0.42500
H1558       H  0.26067996  0.94588744  0.27884976     0.41500
H1559       H  0.25251069  0.88686817  0.36163037     0.41200
H1560       H  0.24524504  0.89137425  0.42759000     0.39100
H1561       H  0.21736806  0.97521535  0.48346955     0.42200
H1562       H  0.18488078  0.53817844  0.46211495     0.37000
H1563       H  0.21353448  0.59241197  0.41703748     0.43100
H1564       H  0.22027848  0.57397233  0.29759662     0.39600
H1565       H  0.25080901  0.90219302  0.46038407     0.44500
H1566       H  0.21336464  0.54516948  0.47663369     0.43200
H1567       H  0.24720814  0.57737862  0.31628011     0.43300
H1568       H  0.22925399  0.95008417  0.27461656     0.43700
O1569       O  0.01743046  0.56286284  0.17619372    -0.75200
O1570       O  0.05048644  0.58165755  0.20672986    -0.54100
C1571       C  0.04257589  0.56534114  0.18534781     0.78600
O1572       O  0.43817382  0.68532000  0.19459449    -0.59800
O1573       O  0.40475848  0.65499333  0.20324404    -0.52800
C1574       C  0.41754619  0.67124640  0.18539958     0.70600
O1575       O  0.01945601  0.65219911  0.17017937    -0.74300
O1576       O  0.05456392  0.63530299  0.19797204    -0.54900
C1577       C  0.04364958  0.64238356  0.17295205     0.76600
O1578       O  0.42111782  0.57268096  0.18539395    -0.59500
O1579       O  0.39553206  0.60387677  0.21368002    -0.52600
C1580       C  0.39802338  0.58364374  0.19442194     0.73200
Zr1581     Zr  0.47181765  0.58007877  0.19327911     2.54700
O1582       O  0.46667337  0.58334233  0.13916662    -0.80000
O1583       O  0.46765086  0.52836569  0.19128185    -0.93500
Zr1584     Zr  0.48349823  0.66606231  0.20273506     2.64700
O1585       O  0.48766945  0.69714186  0.15954259    -0.98400
O1586       O  0.50207792  0.71128351  0.22102456    -0.80500
O1587       O  0.99805786  0.62097037  0.20223322    -0.83800
O1588       O  0.45300221  0.62638592  0.19804068    -2.18500
O1589       O  0.42584903  0.56139631  0.28666509    -0.67200
O1590       O  0.39900825  0.59679477  0.26827275    -0.51800
C1591       C  0.40226578  0.57289057  0.28087110     0.71500
O1592       O  0.02497932  0.63966462  0.31651128    -0.60100
O1593       O  0.05730378  0.62880034  0.28211291    -0.52100
C1594       C  0.04901819  0.63150176  0.30933796     0.73400
O1595       O  0.44265353  0.68421562  0.29031074    -0.71500
O1596       O  0.40799989  0.65456523  0.28656335    -0.50200
C1597       C  0.42156126  0.67332504  0.30161626     0.74700
O1598       O  0.02497536  0.55864159  0.29343294    -0.66900
O1599       O  0.05441358  0.57960439  0.26145714    -0.54100
C1600       C  0.04936904  0.56323067  0.28287270     0.73100
Zr1601     Zr  0.47521568  0.57343322  0.28148954     2.77500
O1602       O  0.47315968  0.57267450  0.33596290    -0.97600
O1603       O  0.47265043  0.52166098  0.27950592    -0.78400
Zr1604     Zr  0.48573442  0.65938023  0.28943950     2.70100
O1605       O  0.47705964  0.66611480  0.34272371    -0.79700
O1606       O  0.50865318  0.70503565  0.29603214    -0.98800
Zr1607     Zr  0.02904883  0.61488372  0.23867621     2.21500
Zr1608     Zr  0.42769958  0.62861637  0.24353895     2.11100
O1609       O  0.45492919  0.61998884  0.28740502    -2.47400
O1610       O  0.00457901  0.61386616  0.28326395    -0.79500
O1611       O  0.44729316  0.58157617  0.23866767    -0.71700
O1612       O  0.01364514  0.66242286  0.24573752    -2.32600
O1613       O  0.00005879  0.57386254  0.23622781    -2.28800
O1614       O  0.45748380  0.66845905  0.24704741    -0.73400
H1615       H  0.44152287  0.62645482  0.18059320     0.78600
H1616       H  0.02881898  0.67539532  0.24711580     0.79700
H1617       H  0.44391300  0.61998029  0.30522733     0.81900
H1618       H  0.01005513  0.55615850  0.23411419     0.79500
H1619       H  0.48636956  0.72459260  0.22072723     0.42500
H1620       H  0.50092445  0.71343616  0.31465780     0.41500
H1621       H  0.46932924  0.64776111  0.34900608     0.41200
H1622       H  0.47876394  0.59205361  0.34259433     0.39100
H1623       H  0.46685627  0.51643742  0.29984776     0.42200
H1624       H  0.98173882  0.52154786  0.18567752     0.37000
H1625       H  0.95636198  0.59872247  0.13527446     0.43100
H1626       H  0.48957244  0.68498057  0.14129949     0.39600
H1627       H  0.45348742  0.57190971  0.34050715     0.44500
H1628       H  0.45541674  0.52390143  0.20803348     0.43200
H1629       H  0.46996589  0.70703867  0.15715418     0.43300
H1630       H  0.52763544  0.70001369  0.30150131     0.43700
O1631       O  0.01028365  0.79920963  0.17674176    -0.75200
O1632       O  0.04416577  0.82979627  0.18362965    -0.54100
C1633       C  0.02947886  0.81399255  0.16618133     0.77400
O1634       O  0.42791939  0.92027726  0.19293556    -0.59800
O1635       O  0.40080750  0.89570920  0.22459210    -0.52800
C1636       C  0.40426971  0.91392406  0.20425722     0.70600
O1637       O  0.02584735  0.91595514  0.18373897    -0.74300
O1638       O  0.05442785  0.88199238  0.20217605    -0.54900
C1639       C  0.05008865  0.90464031  0.18756422     0.76600
O1640       O  0.42298793  0.80764613  0.20345499    -0.59500
O1641       O  0.39526512  0.84330779  0.21187323    -0.52600
C1642       C  0.40382910  0.82361362  0.19412088     0.73200
Zr1643     Zr  0.46913066  0.81975899  0.19142189     2.54700
O1644       O  0.45698836  0.83483601  0.14107738    -0.80000
O1645       O  0.46118350  0.77381587  0.16602809    -0.93500
Zr1646     Zr  0.47746718  0.90522515  0.19931023     2.64700
O1647       O  0.47450068  0.91188588  0.14542374    -0.98400
O1648       O  0.47807557  0.95655507  0.20849421    -0.80500
O1649       O  0.99660792  0.85903668  0.19099054    -0.83800
O1650       O  0.44843159  0.86491681  0.19974272    -2.18500
O1651       O  0.44163771  0.81326984  0.31280716    -0.67200
O1652       O  0.40816044  0.84211502  0.29481409    -0.51800
C1653       C  0.41953207  0.82771313  0.31606189     0.71500
O1654       O  0.03905207  0.90279947  0.29340836    -0.60100
O1655       O  0.06211156  0.87767710  0.25708974    -0.52100
C1656       C  0.06125432  0.89435198  0.28003024     0.73400
O1657       O  0.44351423  0.91792139  0.30530434    -0.71500
O1658       O  0.40835591  0.89552570  0.28073477    -0.50200
C1659       C  0.41767002  0.91372403  0.29951950     0.74700
O1660       O  0.02307317  0.79526958  0.28105830    -0.66900
O1661       O  0.05379872  0.82793252  0.27158542    -0.54100
C1662       C  0.04208759  0.81159703  0.29013878     0.73100
Zr1663     Zr  0.47939388  0.81235058  0.27812256     2.77500
O1664       O  0.49172413  0.78983051  0.32519069    -0.97600
O1665       O  0.46198960  0.76621797  0.26122092    -0.78400
Zr1666     Zr  0.48912045  0.89872178  0.28660183     2.70100
O1667       O  0.49490321  0.89568558  0.34068364    -0.79700
O1668       O  0.49480708  0.95027958  0.28854454    -0.98800
Zr1669     Zr  0.02806730  0.85111730  0.23104556     2.21500
Zr1670     Zr  0.42836335  0.86197697  0.24864076     2.11100
O1671       O  0.46102177  0.85861339  0.28810019    -2.47400
O1672       O  0.00548396  0.85183329  0.27774987    -0.79500
O1673       O  0.44697948  0.81559868  0.23897063    -0.71700
O1674       O  0.00842532  0.89772309  0.23859101    -2.32600
O1675       O  0.99874219  0.81028882  0.23059688    -2.28800
O1676       O  0.45670866  0.90385760  0.24732895    -0.73400
H1677       H  0.43484499  0.86772923  0.18439274     0.78600
H1678       H  0.02202130  0.91247752  0.23865024     0.79700
H1679       H  0.45414909  0.86161183  0.30801566     0.81900
H1680       H  0.00850577  0.79247150  0.22814821     0.79500
H1681       H  0.99149168  0.96336386  0.19285068     0.42500
H1682       H  0.50242770  0.95438590  0.30877649     0.41500
H1683       H  0.48259446  0.91054731  0.34908854     0.41200
H1684       H  0.48838025  0.80451432  0.34099483     0.39100
H1685       H  0.46121651  0.75474574  0.27954267     0.42200
H1686       H  0.45356285  0.76167394  0.18172790     0.37000
H1687       H  0.96709237  0.85059183  0.13700028     0.43100
H1688       H  0.48079582  0.93166688  0.14265621     0.39600
H1689       H  0.47768665  0.77516945  0.32841174     0.44500
H1690       H  0.47918390  0.76514938  0.16180447     0.43200
H1691       H  0.48925354  0.89981750  0.13695439     0.43300
H1692       H  0.50997669  0.95409143  0.27477176     0.43700
C1693       C  0.33901190  0.93514366  0.32998664    -0.05300
C1694       C  0.34860810  0.94600699  0.30312713    -0.32800
C1695       C  0.37627396  0.94360047  0.29541814     0.36500
C1696       C  0.39510396  0.92951054  0.31425726    -0.05700
C1697       C  0.38579279  0.91990381  0.34184430    -0.32700
C1698       C  0.35826927  0.92323909  0.35003315     0.36400
H1699       H  0.33476633  0.95723489  0.28840672     0.16800
O1700       O  0.38478585  0.95409472  0.26864315    -0.60200
H1701       H  0.39948923  0.90823981  0.35634756     0.16800
O1702       O  0.35040722  0.91514428  0.37795412    -0.60300
H1703       H  0.35137220  0.89402309  0.37746216     0.43800
H1704       H  0.37458693  0.94321519  0.25301051     0.43700
C1705       C  0.14364921  0.91259338  0.30842597    -0.05300
C1706       C  0.12591010  0.89738363  0.32672584    -0.32800
C1707       C  0.09860530  0.89282675  0.31853352     0.36500
C1708       C  0.08844394  0.90314028  0.29132894    -0.05700
C1709       C  0.10649774  0.91685082  0.27202064    -0.32700
C1710       C  0.13367666  0.92217688  0.28066281     0.36400
H1711       H  0.13289039  0.89051648  0.34845176     0.16800
O1712       O  0.08220647  0.87756023  0.33691972    -0.60200
H1713       H  0.09932711  0.92387783  0.25034757     0.16800
O1714       O  0.14995308  0.93779036  0.26242492    -0.60300
H1715       H  0.14633430  0.95800032  0.26811048     0.43800
H1716       H  0.07458816  0.89177737  0.35134636     0.43700
C1717       C  0.37626548  0.55855146  0.28846931    -0.05300
C1718       C  0.35117703  0.57161071  0.28035792    -0.32800
C1719       C  0.32612547  0.56059859  0.28914908     0.36500
C1720       C  0.32558751  0.53591231  0.30615861    -0.05700
C1721       C  0.35044250  0.52183561  0.31253784    -0.32700
C1722       C  0.37549777  0.53289915  0.30399412     0.36400
H1723       H  0.35077599  0.59118196  0.26794049     0.16800
O1724       O  0.30269218  0.57562043  0.28339049    -0.60200
H1725       H  0.35063465  0.50275253  0.32572578     0.16800
O1726       O  0.39897086  0.51875674  0.31164794    -0.60300
H1727       H  0.40351606  0.52567474  0.33222585     0.43800
H1728       H  0.29529817  0.56720886  0.26448212     0.43700
C1729       C  0.12898248  0.52999314  0.30532582    -0.05300
C1730       C  0.10615503  0.51149942  0.30341029    -0.32800
C1731       C  0.07954905  0.52185080  0.29826307     0.36500
C1732       C  0.07512269  0.55114264  0.29530300    -0.05700
C1733       C  0.09806448  0.56939553  0.29680596    -0.32700
C1734       C  0.12454881  0.55911761  0.30132514     0.36400
H1735       H  0.10891045  0.48881374  0.30647849     0.16800
O1736       O  0.05827271  0.50316692  0.29548214    -0.60200
H1737       H  0.09562861  0.59200434  0.29340262     0.16800
O1738       O  0.14570362  0.57800464  0.30318165    -0.60300
H1739       H  0.15357790  0.57807458  0.28280879     0.43800
H1740       H  0.05843150  0.49652640  0.27424320     0.43700
C1741       C  0.32586660  0.95019625  0.17861131    -0.05300
C1742       C  0.35031766  0.96594616  0.17546660    -0.32800
C1743       C  0.37600486  0.95448412  0.18266741     0.36500
C1744       C  0.37797337  0.92692550  0.19392947    -0.05700
C1745       C  0.35344905  0.91171528  0.19839086    -0.32700
C1746       C  0.32780448  0.92301284  0.19088547     0.36400
H1747       H  0.34971313  0.98713254  0.16628980     0.16800
O1748       O  0.39892016  0.97039900  0.17841516    -0.60200
H1749       H  0.35405609  0.89044982  0.20735270     0.16800
O1750       O  0.30499968  0.90675575  0.19450971    -0.60300
H1751       H  0.30424587  0.89387115  0.17662010     0.43800
H1752       H  0.40230121  0.98042280  0.19786236     0.43700
C1753       C  0.12840168  0.94004025  0.16095427    -0.05300
C1754       C  0.10446235  0.95711950  0.16061566    -0.32800
C1755       C  0.07867438  0.94615143  0.16797006     0.36500
C1756       C  0.07611310  0.91750010  0.17613440    -0.05700
C1757       C  0.10024701  0.90056790  0.17635157    -0.32700
C1758       C  0.12585226  0.91143482  0.16876002     0.36400
H1759       H  0.10569744  0.97922322  0.15422450     0.16800
O1760       O  0.05640691  0.96387566  0.16777112    -0.60200
H1761       H  0.09946127  0.87834555  0.18232809     0.16800
O1762       O  0.14805235  0.89357108  0.16807138    -0.60300
H1763       H  0.14611730  0.88219119  0.14920155     0.43800
H1764       H  0.04894257  0.96230908  0.14709478     0.43700
C1765       C  0.37146585  0.57329176  0.18293694    -0.05300
C1766       C  0.35731207  0.55293072  0.19927154    -0.32800
C1767       C  0.32948608  0.54776963  0.19379490     0.36500
C1768       C  0.31513195  0.56329569  0.17197177    -0.05700
C1769       C  0.32911802  0.58435316  0.15643346    -0.32700
C1770       C  0.35686127  0.58956283  0.16197609     0.36400
H1771       H  0.36780869  0.54118082  0.21657389     0.16800
O1772       O  0.31698080  0.52575538  0.20792112    -0.60200
H1773       H  0.31891039  0.59557542  0.13853394     0.16800
O1774       O  0.36948511  0.61102308  0.14714408    -0.60300
H1775       H  0.37609497  0.60210094  0.12821321     0.43800
H1776       H  0.31459713  0.53240709  0.22894805     0.43700
C1777       C  0.12010693  0.54568955  0.15028139    -0.05300
C1778       C  0.11345976  0.53707140  0.17911905    -0.32800
C1779       C  0.08654455  0.53917911  0.18937230     0.36500
C1780       C  0.06569656  0.55040588  0.17083275    -0.05700
C1781       C  0.07196065  0.55675936  0.14127321    -0.32700
C1782       C  0.09878672  0.55442371  0.13094451     0.36400
H1783       H  0.12901704  0.52805884  0.19350547     0.16800
O1784       O  0.08067611  0.53083240  0.21789682    -0.60200
H1785       H  0.05641816  0.56507974  0.12655994     0.16800
O1786       O  0.10413479  0.56144723  0.10194711    -0.60300
H1787       H  0.09851509  0.54464315  0.08959352     0.43800
H1788       H  0.09097191  0.54391925  0.23149002     0.43700
C1789       C  0.31332681  0.84999837  0.06851363    -0.05300
C1790       C  0.32744065  0.86835317  0.08861167    -0.32800
C1791       C  0.32387848  0.89822735  0.08797326     0.36500
C1792       C  0.30657018  0.91044407  0.06631125    -0.05700
C1793       C  0.29209632  0.89179678  0.04697693    -0.32700
C1794       C  0.29417548  0.86218799  0.04902650     0.36400
H1795       H  0.34292059  0.85962022  0.10319080     0.16800
O1796       O  0.33866815  0.91518195  0.10736295    -0.60200
H1797       H  0.27899695  0.90011133  0.02981791     0.16800
O1798       O  0.28043198  0.84540804  0.02846791    -0.60300
H1799       H  0.26438185  0.83831095  0.03929901     0.43800
H1800       H  0.32822356  0.91538552  0.12623119     0.43700
C1801       C  0.33012326  0.64446172  0.05900280    -0.05300
C1802       C  0.34738750  0.62011457  0.05827244    -0.32800
C1803       C  0.33722592  0.59244714  0.06246431     0.36500
C1804       C  0.30930832  0.58860575  0.06694712    -0.05700
C1805       C  0.29261955  0.61314711  0.07038851    -0.32700
C1806       C  0.30274812  0.64072185  0.06663670     0.36400
H1807       H  0.36873150  0.62239418  0.05295227     0.16800
O1808       O  0.35429487  0.56936741  0.05967146    -0.60200
H1809       H  0.27111878  0.61089295  0.07495688     0.16800
O1810       O  0.28511086  0.66346475  0.06780302    -0.60300
H1811       H  0.28527257  0.67000873  0.08907129     0.43800
H1812       H  0.36342013  0.56785994  0.07947939     0.43700
C1813       C  0.30739397  0.90878344  0.43689822    -0.05300
C1814       C  0.30482880  0.88779645  0.41376806    -0.32800
C1815       C  0.30838610  0.85835020  0.41931831     0.36500
C1816       C  0.31462329  0.84918501  0.44847322    -0.05700
C1817       C  0.31855054  0.87058884  0.47098739    -0.32700
C1818       C  0.31478112  0.89968720  0.46551536     0.36400
H1819       H  0.29899123  0.89400490  0.39142791     0.16800
O1820       O  0.30552055  0.83892655  0.39615111    -0.60200
H1821       H  0.32435353  0.86490748  0.49349300     0.16800
O1822       O  0.31754055  0.91912605  0.48870053    -0.60300
H1823       H  0.33728141  0.92336267  0.48983972     0.43800
H1824       H  0.28578295  0.83465843  0.39515440     0.43700
C1825       C  0.30324160  0.58609394  0.42200675    -0.05300
C1826       C  0.28842541  0.61137736  0.41592712    -0.32800
C1827       C  0.29903967  0.63861255  0.42226470     0.36500
C1828       C  0.32506550  0.64139729  0.43514690    -0.05700
C1829       C  0.34047413  0.61602805  0.43966739    -0.32700
C1830       C  0.32994102  0.58877195  0.43288088     0.36400
H1831       H  0.26800451  0.61007420  0.40664052     0.16800
O1832       O  0.28338013  0.66219030  0.41655889    -0.60200
H1833       H  0.36078389  0.61714404  0.44924438     0.16800
O1834       O  0.34532918  0.56503375  0.43869893    -0.60300
H1835       H  0.35618346  0.56154720  0.42034180     0.43800
H1836       H  0.27245661  0.66549957  0.43489660     0.43700
C1837       C  0.40544803  0.83654187  0.41139560    -0.05300
C1838       C  0.38278256  0.83309383  0.39188755    -0.32800
C1839       C  0.38614294  0.83116566  0.36040714     0.36500
C1840       C  0.41235239  0.83322581  0.34817932    -0.05700
C1841       C  0.43422776  0.83994219  0.36775877    -0.32700
C1842       C  0.43105074  0.84126638  0.39882354     0.36400
H1843       H  0.36282656  0.82942839  0.40107856     0.16800
O1844       O  0.36413128  0.82539796  0.34226657    -0.60200
H1845       H  0.45448233  0.84299303  0.35898994     0.16800
O1846       O  0.45333529  0.84645952  0.41686529    -0.60300
H1847       H  0.46415091  0.82854818  0.41635487     0.43800
H1848       H  0.36443269  0.80442671  0.33898525     0.43700
C1849       C  0.39778210  0.82387798  0.16120182    -0.05300
C1850       C  0.39505320  0.84973860  0.14565777    -0.32800
C1851       C  0.39815853  0.85050008  0.11413174     0.36500
C1852       C  0.40315188  0.82510768  0.09761208    -0.05700
C1853       C  0.40320017  0.79929294  0.11312334    -0.32700
C1854       C  0.40053095  0.79849256  0.14422915     0.36400
H1855       H  0.39256286  0.86963528  0.15805283     0.16800
O1856       O  0.39762829  0.87617089  0.10006397    -0.60200
H1857       H  0.40530588  0.77925842  0.10102563     0.16800
O1858       O  0.40185196  0.77266882  0.15803028    -0.60300
H1859       H  0.38329435  0.76460206  0.15604552     0.43800
H1860       H  0.41660059  0.88325091  0.10133210     0.43700
C1861       C  0.41604851  0.67959875  0.33384426    -0.05300
C1862       C  0.40551064  0.65836217  0.35226520    -0.32800
C1863       C  0.40663345  0.66127805  0.38380333     0.36500
C1864       C  0.41905840  0.68538908  0.39744925    -0.05700
C1865       C  0.42917497  0.70656310  0.37876167    -0.32700
C1866       C  0.42695294  0.70435544  0.34764740     0.36400
H1867       H  0.39758324  0.63882982  0.34228447     0.16800
O1868       O  0.39676342  0.63983023  0.40091174    -0.60200
H1869       H  0.43884229  0.72538708  0.38821784     0.16800
O1870       O  0.43698549  0.72603847  0.33088833    -0.60300
H1871       H  0.42108196  0.73847487  0.32666094     0.43800
H1872       H  0.37673059  0.64235571  0.40036113     0.43700
C1873       C  0.40984705  0.67139842  0.08925571    -0.05300
C1874       C  0.38678626  0.67657517  0.10721358    -0.32800
C1875       C  0.38831429  0.67546665  0.13858660     0.36500
C1876       C  0.41310858  0.66857803  0.15245897    -0.05700
C1877       C  0.43531765  0.66051754  0.13425185    -0.32700
C1878       C  0.43390173  0.66198176  0.10300700     0.36400
H1879       H  0.36843801  0.68511506  0.09728014     0.16800
O1880       O  0.36627387  0.68366753  0.15537624    -0.60200
H1881       H  0.45449387  0.65443880  0.14429068     0.16800
O1882       O  0.45707252  0.65768588  0.08654887    -0.60300
H1883       H  0.45730793  0.63700904  0.08148599     0.43800
H1884       H  0.36671533  0.70480844  0.15600606     0.43700
C1885       C  0.15654264  0.88839345  0.40756094    -0.05300
C1886       C  0.12838051  0.88651271  0.41081319    -0.32800
C1887       C  0.11619044  0.85999505  0.41476726     0.36500
C1888       C  0.13238253  0.83484098  0.41643394    -0.05700
C1889       C  0.16009347  0.83646799  0.41032378    -0.32700
C1890       C  0.17214426  0.86284298  0.40554516     0.36400
H1891       H  0.11591734  0.90563523  0.41149710     0.16800
O1892       O  0.08858033  0.85914734  0.41902253    -0.60200
H1893       H  0.17281318  0.81755532  0.41113409     0.16800
O1894       O  0.19954826  0.86340307  0.40000579    -0.60300
H1895       H  0.20098842  0.86418306  0.37790313     0.43800
H1896       H  0.08044170  0.86014139  0.39868131     0.43700
C1897       C  0.13453484  0.62923182  0.42433996    -0.05300
C1898       C  0.14706231  0.62699750  0.39641078    -0.32800
C1899       C  0.15331557  0.60013756  0.38367758     0.36500
C1900       C  0.14658999  0.57469420  0.39852560    -0.05700
C1901       C  0.13203390  0.57681513  0.42509694    -0.32700
C1902       C  0.12595743  0.60351936  0.43804215     0.36400
H1903       H  0.15322631  0.64601644  0.38501318     0.16800
O1904       O  0.16757208  0.59889769  0.35739686    -0.60200
H1905       H  0.12732308  0.55775392  0.43728195     0.16800
O1906       O  0.11270056  0.60392864  0.46499432    -0.60300
H1907       H  0.09330662  0.60031932  0.45996381     0.43800
H1908       H  0.18632128  0.60507332  0.36269479     0.43700
C1909       C  0.15140112  0.90287572  0.04951072    -0.05300
C1910       C  0.14982383  0.88252272  0.07220173    -0.32800
C1911       C  0.14185506  0.85422749  0.06568792     0.36500
C1912       C  0.13557158  0.84585543  0.03598453    -0.05700
C1913       C  0.13716199  0.86647371  0.01343877    -0.32700
C1914       C  0.14518255  0.89449707  0.01994454     0.36400
H1915       H  0.15608043  0.88828396  0.09485173     0.16800
O1916       O  0.14055923  0.83502438  0.08833815    -0.60200
H1917       H  0.13258904  0.86066931  0.99031142     0.16800
O1918       O  0.14868417  0.91299763  0.99692920    -0.60300
H1919       H  0.13188856  0.92480750  0.99657888     0.43800
H1920       H  0.12360345  0.83985938  0.09924588     0.43700
C1921       C  0.16278235  0.58242338  0.04827776    -0.05300
C1922       C  0.15435478  0.59702460  0.07451316    -0.32800
C1923       C  0.14984206  0.62667420  0.07490580     0.36500
C1924       C  0.15467056  0.64263560  0.04916605    -0.05700
C1925       C  0.16580898  0.62848390  0.02407221    -0.32700
C1926       C  0.16899376  0.59875675  0.02299884     0.36400
H1927       H  0.15100669  0.58541557  0.09480737     0.16800
O1928       O  0.13899563  0.63944251  0.09996171    -0.60200
H1929       H  0.16883551  0.64012206  0.00365052     0.16800
O1930       O  0.17607635  0.58564305  0.99636931    -0.60300
H1931       H  0.19228948  0.59579568  0.98901760     0.43800
H1932       H  0.15413800  0.65042124  0.10932469     0.43700
C1933       C  0.04541404  0.81606965  0.32297646    -0.05300
C1934       C  0.02245459  0.82445486  0.33982097    -0.32800
C1935       C  0.02192593  0.82156208  0.37097817     0.36500
C1936       C  0.04469460  0.81074476  0.38598740    -0.05700
C1937       C  0.06869045  0.80539165  0.36955558    -0.32700
C1938       C  0.06921054  0.80807581  0.33825262     0.36400
H1939       H  0.00395781  0.83117088  0.32866175     0.16800
O1940       O  0.99833222  0.82702929  0.38613980    -0.60200
H1941       H  0.08649568  0.79675894  0.38057623     0.16800
O1942       O  0.09197938  0.79987845  0.32263690    -0.60300
H1943       H  0.10599250  0.81431605  0.32792463     0.43800
H1944       H  0.99955293  0.84739134  0.39238786     0.43700
C1945       C  0.03357432  0.81481479  0.06934879    -0.05300
C1946       C  0.05656663  0.82317496  0.08649445    -0.32800
C1947       C  0.05569959  0.82391711  0.11813637     0.36500
C1948       C  0.03209957  0.81484358  0.13292119    -0.05700
C1949       C  0.00899626  0.80806828  0.11543283    -0.32700
C1950       C  0.00916506  0.80963613  0.08432517     0.36400
H1951       H  0.07567550  0.82729660  0.07550396     0.16800
O1952       O  0.07854121  0.83143185  0.13420834    -0.60200
H1953       H  0.99055143  0.80100938  0.12583749     0.16800
O1954       O  0.98571351  0.80372058  0.06861693    -0.60300
H1955       H  0.97977146  0.82218263  0.06027428     0.43800
H1956       H  0.07775213  0.85251694  0.13598576     0.43700
C1957       C  0.07181682  0.64266738  0.39482256    -0.05300
C1958       C  0.05893204  0.61692733  0.38778182    -0.32800
C1959       C  0.05648321  0.60814671  0.35765439     0.36500
C1960       C  0.06676646  0.62557589  0.33488864    -0.05700
C1961       C  0.08468897  0.64724858  0.34259808    -0.32700
C1962       C  0.08649094  0.65665474  0.37231349     0.36400
H1963       H  0.04772074  0.60586854  0.40475139     0.16800
O1964       O  0.03963607  0.58583556  0.35037485    -0.60200
H1965       H  0.09270030  0.66069044  0.32532649     0.16800
O1966       O  0.09823955  0.68261629  0.37822363    -0.60300
H1967       H  0.11686284  0.68129974  0.36987018     0.43800
H1968       H  0.05053541  0.56845834  0.35437978     0.43700
C1969       C  0.06559335  0.65081176  0.08468475    -0.05300
C1970       C  0.04776524  0.62902423  0.09163908    -0.32800
C1971       C  0.04329491  0.62288041  0.12162617     0.36500
C1972       C  0.05765180  0.63778244  0.14457706    -0.05700
C1973       C  0.07863331  0.65613128  0.13717520    -0.32700
C1974       C  0.08223340  0.66322212  0.10727586     0.36400
H1975       H  0.03457563  0.61977591  0.07448521     0.16800
O1976       O  0.02199580  0.60552316  0.12858871    -0.60200
H1977       H  0.08938435  0.66808579  0.15457008     0.16800
O1978       O  0.09984109  0.68473837  0.10053977    -0.60300
H1979       H  0.09043635  0.70265513  0.10670824     0.43800
H1980       H  0.00538780  0.61715610  0.12513694     0.43700
O1981       O  0.14403867  0.69376555  0.54264145    -0.75200
O1982       O  0.11567144  0.65945077  0.52329936    -0.54100
C1983       C  0.13669390  0.66733945  0.53801357     0.78600
O1984       O  0.02340470  0.78187122  0.53106643    -0.59800
O1985       O  0.05452279  0.81447437  0.52102461    -0.52800
C1986       C  0.03670858  0.80423742  0.53853064     0.70600
O1987       O  0.05622272  0.69581288  0.56065237    -0.74300
O1988       O  0.06726538  0.65753356  0.53141197    -0.54900
C1989       C  0.06333273  0.66966893  0.55710107     0.76600
O1990       O  0.13274983  0.79487073  0.53747681    -0.59500
O1991       O  0.10427114  0.82002276  0.50706843    -0.52600
C1992       C  0.12326301  0.81850161  0.52659412     0.73200
Zr1993     Zr  0.12554108  0.74229304  0.52855024     2.54700
O1994       O  0.12952326  0.74641692  0.58286103    -0.80000
O1995       O  0.17431321  0.74785464  0.52137366    -0.93500
Zr1996     Zr  0.04184675  0.73374068  0.52871513     2.64700
O1997       O  0.02742450  0.74203277  0.58023277    -0.98400
O1998       O  0.99830202  0.70911428  0.52603673    -0.80500
O1999       O  0.08612889  0.71374301  0.53056862    -0.83800
O2000       O  0.08118276  0.76335067  0.52771417    -2.18500
O2001       O  0.13337215  0.78158519  0.92749081    -0.67200
O2002       O  0.10280569  0.81225461  0.94916747    -0.51800
C2003       C  0.12279956  0.80685046  0.93206239     0.71500
O2004       O  0.05442951  0.68204626  0.91753754    -0.60100
O2005       O  0.07188955  0.64956808  0.94943449    -0.52100
C2006       C  0.06494596  0.65774288  0.92304876     0.73400
O2007       O  0.03056882  0.76738427  0.91815884    -0.71500
O2008       O  0.05379068  0.80525016  0.93783026    -0.50200
C2009       C  0.04137075  0.79204339  0.91604473     0.74700
O2010       O  0.13095015  0.67886250  0.92839982    -0.66900
O2011       O  0.12421995  0.65493555  0.97063063    -0.54100
C2012       C  0.12987804  0.65521324  0.94311273     0.73100
Zr2013     Zr  0.12431916  0.73102615  0.94283967     2.77500
O2014       O  0.13237638  0.73014898  0.88907513    -0.97600
O2015       O  0.17338551  0.72987001  0.95127405    -0.78400
Zr2016     Zr  0.04168791  0.72436796  0.94482330     2.70100
O2017       O  0.01497766  0.71826781  0.89882692    -0.79700
O2018       O  0.99655651  0.71055265  0.96109226    -0.98800
Zr2019     Zr  0.08742743  0.68028732  0.99158992     2.21500
Zr2020     Zr  0.07659130  0.78688276  0.48101879     2.11100
O2021       O  0.08101278  0.75332812  0.94026200    -2.47400
O2022       O  0.08479095  0.70683871  0.95043546    -0.79500
O2023       O  0.12173101  0.76394615  0.98402927    -0.71700
O2024       O  0.04185698  0.70118976  0.48703033    -2.32600
O2025       O  0.12797317  0.70866240  0.98959127    -2.28800
O2026       O  0.03633354  0.75912613  0.48308446    -0.73400
H2027       H  0.08096555  0.77630255  0.54480521     0.78600
H2028       H  0.02854573  0.68616816  0.48775823     0.79700
H2029       H  0.08183897  0.76255604  0.92125741     0.81900
H2030       H  0.14480880  0.69795245  0.99039624     0.79500
H2031       H  0.99384066  0.70496497  0.54707381     0.42500
H2032       H  0.98433925  0.72552860  0.95333298     0.41500
H2033       H  0.02834384  0.71810210  0.88234918     0.41200
H2034       H  0.11764487  0.74205403  0.88055646     0.39100
H2035       H  0.17872463  0.70977220  0.94730977     0.42200
H2036       H  0.18227935  0.74679791  0.54176434     0.37000
H2037       H  0.14574051  0.73481295  0.58796707     0.43100
H2038       H  0.03980881  0.75691016  0.58836522     0.39600
H2039       H  0.14914817  0.74142261  0.88652349     0.44500
H2040       H  0.17666653  0.76797421  0.51572370     0.43200
H2041       H  0.00934679  0.75127544  0.57886090     0.43300
H2042       H  0.99211627  0.69331926  0.94886170     0.43700
O2043       O  0.41695578  0.71386106  0.56632801    -0.75200
O2044       O  0.40678227  0.67575773  0.53603025    -0.54100
C2045       C  0.41269406  0.68724370  0.56184723     0.78600
O2046       O  0.32004345  0.79473298  0.55931621    -0.59800
O2047       O  0.34340899  0.83026712  0.53636456    -0.52800
C2048       C  0.32573443  0.82149526  0.55467038     0.70600
O2049       O  0.33213729  0.69374635  0.55409137    -0.74300
O2050       O  0.35798472  0.66855984  0.02617275    -0.54900
C2051       C  0.34212783  0.66930636  0.54511777     0.76600
O2052       O  0.42454672  0.80534144  0.55362611    -0.59500
O2053       O  0.38791083  0.83219892  0.54446868    -0.52600
C2054       C  0.40582858  0.82226389  0.56281929     0.73200
Zr2055     Zr  0.41901732  0.75608962  0.53683104     2.54700
O2056       O  0.44570878  0.75721644  0.58327319    -0.80000
O2057       O  0.46499722  0.75443221  0.51698052    -0.93500
Zr2058     Zr  0.33717311  0.74552898  0.54271449     2.64700
O2059       O  0.34124173  0.74362655  0.59706414    -0.98400
O2060       O  0.28794548  0.73986462  0.54339455    -0.80500
O2061       O  0.38027819  0.72992011  0.53227951    -0.83800
O2062       O  0.37479025  0.77605950  0.54261912    -2.18500
O2063       O  0.41990752  0.81113584  0.95157306    -0.67200
O2064       O  0.38303469  0.83745427  0.95956795    -0.51800
C2065       C  0.40236055  0.82920568  0.94220043     0.71500
O2066       O  0.32322569  0.69764443  0.94112090    -0.60100
O2067       O  0.35272908  0.66946912  0.96693414    -0.52100
C2068       C  0.33322144  0.67281511  0.94831030     0.73400
O2069       O  0.31785144  0.79998936  0.94167979    -0.71500
O2070       O  0.32438920  0.81710328  0.98744503    -0.50200
C2071       C  0.31871605  0.82150878  0.96026778     0.74700
O2072       O  0.43136881  0.71298352  0.94077166    -0.66900
O2073       O  0.40067278  0.67953638  0.94879498    -0.54100
C2074       C  0.41704088  0.69212175  0.93119114     0.73100
Zr2075     Zr  0.41258453  0.75977281  0.95060228     2.77500
O2076       O  0.40311587  0.76204977  0.89696496    -0.97600
O2077       O  0.45807327  0.76788000  0.93141763    -0.78400
Zr2078     Zr  0.33077426  0.74967593  0.95527734     2.70100
O2079       O  0.32807713  0.74823767  0.90079089    -0.79700
O2080       O  0.28149647  0.74740564  0.95980674    -0.98800
Zr2081     Zr  0.38127456  0.70052184  0.99490514     2.21500
Zr2082     Zr  0.37039705  0.80778025  0.00184860     2.11100
O2083       O  0.36890705  0.78084798  0.95516988    -2.47400
O2084       O  0.37460731  0.72835442  0.95134994    -0.79500
O2085       O  0.41467431  0.78711557  0.99642711    -0.71700
O2086       O  0.33659466  0.72157249  0.99874324    -2.32600
O2087       O  0.42111944  0.72937325  0.99284514    -2.28800
O2088       O  0.33146921  0.77660275  0.00162014    -0.73400
H2089       H  0.37224901  0.78547616  0.56148568     0.78600
H2090       H  0.32249691  0.70735904  0.99929377     0.79700
H2091       H  0.36601613  0.79251747  0.93802387     0.81900
H2092       H  0.43740096  0.71773472  0.99233566     0.79500
H2093       H  0.28457698  0.72141365  0.53287996     0.42500
H2094       H  0.27727837  0.72679675  0.95884819     0.41500
H2095       H  0.34219651  0.73421459  0.89459290     0.41200
H2096       H  0.38463339  0.77029776  0.89503613     0.39100
H2097       H  0.46837713  0.77611958  0.94864316     0.42200
H2098       H  0.47653673  0.76094493  0.53397973     0.37000
H2099       H  0.45988643  0.74229344  0.58082471     0.43100
H2100       H  0.32828871  0.72871061  0.60298303     0.39600
H2101       H  0.41540989  0.77695270  0.88960536     0.44500
H2102       H  0.46577689  0.77023576  0.50268472     0.43200
H2103       H  0.35947005  0.73524316  0.60075461     0.43300
H2104       H  0.27794804  0.75319348  0.98087198     0.43700
O2105       O  0.17251498  0.54728138  0.64924674    -0.75200
O2106       O  0.14687407  0.52004907  0.61671563    -0.54100
C2107       C  0.14936744  0.53819634  0.63818300     0.78600
O2108       O  0.27413492  0.55807181  0.55062700    -0.59800
O2109       O  0.30694512  0.53677996  0.57859545    -0.52800
C2110       C  0.29756425  0.55793272  0.56334601     0.70600
O2111       O  0.18895595  0.54247189  0.53105700    -0.74300
O2112       O  0.16057171  0.53561732  0.56897417    -0.54900
C2113       C  0.17007652  0.55134201  0.54821125     0.76600
O2114       O  0.26871114  0.55638586  0.65907472    -0.59500
O2115       O  0.30237203  0.53010452  0.63626619    -0.52600
C2116       C  0.29405856  0.54964694  0.65420291     0.73200
Zr2117     Zr  0.22292753  0.53970726  0.64036531     2.54700
O2118       O  0.21671589  0.59095694  0.63608274    -0.80000
O2119       O  0.22098033  0.54202919  0.69490102    -0.93500
Zr2120     Zr  0.23311785  0.53045486  0.55014937     2.64700
O2121       O  0.22563361  0.57748733  0.52920211    -0.98400
O2122       O  0.25151361  0.51385657  0.50245540    -0.80500
O2123       O  0.20802771  0.52885035  0.59294383    -0.83800
O2124       O  0.25230438  0.53838156  0.59865456    -2.18500
O2125       O  0.27617725  0.94968439  0.66854610    -0.67200
O2126       O  0.30606732  0.97732148  0.64322464    -0.51800
C2127       C  0.30063810  0.95912501  0.66299912     0.71500
O2128       O  0.19273161  0.92354685  0.55278166    -0.60100
O2129       O  0.15705950  0.95245339  0.56554179    -0.52100
C2130       C  0.16738480  0.92853159  0.55614830     0.73400
O2131       O  0.28237122  0.94735386  0.54918702    -0.71500
O2132       O  0.30875555  0.95578705  0.58824310    -0.50200
C2133       C  0.29984964  0.93831996  0.56788432     0.74700
O2134       O  0.17819119  0.94532482  0.65932933    -0.66900
O2135       O  0.15032377  0.96834131  0.62630209    -0.54100
C2136       C  0.15424323  0.95195375  0.64842712     0.73100
Zr2137     Zr  0.22741077  0.95888291  0.65113273     2.77500
O2138       O  0.22765247  0.90806275  0.66108092    -0.97600
O2139       O  0.22426060  0.97176762  0.70413131    -0.78400
Zr2140     Zr  0.23500649  0.94706886  0.56215723     2.70100
O2141       O  0.24298153  0.89893843  0.57982932    -0.79700
O2142       O  0.23426016  0.92583980  0.51217951    -0.98800
Zr2143     Zr  0.17874504  0.99270378  0.59251967     2.21500
Zr2144     Zr  0.28150843  0.49776308  0.60256759     2.11100
O2145       O  0.25651657  0.95427281  0.60932028    -2.47400
O2146       O  0.20572740  0.95224743  0.60360153    -0.79500
O2147       O  0.25253845  0.49997841  0.64596652    -0.71700
O2148       O  0.20703683  0.48764135  0.54822459    -2.32600
O2149       O  0.19841537  0.99843322  0.64183274    -2.28800
O2150       O  0.26172870  0.49030128  0.55411535    -0.73400
H2151       H  0.26151411  0.55632195  0.60094673     0.78600
H2152       H  0.19644584  0.48532570  0.53001538     0.79700
H2153       H  0.26823214  0.93823413  0.61338579     0.81900
H2154       H  0.18486109  0.99988872  0.65732224     0.79500
H2155       H  0.26195834  0.53020869  0.49502582     0.42500
H2156       H  0.25204312  0.93087091  0.50357402     0.41500
H2157       H  0.22586382  0.89360105  0.58976017     0.41200
H2158       H  0.21390332  0.89993146  0.64702613     0.39100
H2159       H  0.20448884  0.97284342  0.70815516     0.42200
H2160       H  0.20229957  0.53600112  0.69985234     0.37000
H2161       H  0.22384134  0.59533302  0.61603593     0.43100
H2162       H  0.22869382  0.59120633  0.54602871     0.39600
H2163       H  0.24529393  0.90102770  0.65322079     0.44500
H2164       H  0.23278052  0.52617816  0.70157300     0.43200
H2165       H  0.24074297  0.58068564  0.51514306     0.43300
H2166       H  0.23501517  0.90499412  0.51507228     0.43700
O2167       O  0.18251192  0.55011990  0.88925726    -0.75200
O2168       O  0.15025363  0.51876394  0.89900845    -0.54100
C2169       C  0.15820460  0.54485156  0.89678389     0.78600
O2170       O  0.27598469  0.53118473  0.81253752    -0.59800
O2171       O  0.30566600  0.51686987  0.84905529    -0.52800
C2172       C  0.30032169  0.52798520  0.82387788     0.70600
O2173       O  0.17780622  0.52769275  0.81441817    -0.74300
O2174       O  0.15004114  0.49821515  0.84025998    -0.54900
C2175       C  0.15392643  0.51733920  0.82097950     0.76600
O2176       O  0.26075101  0.56340218  0.92160453    -0.59500
O2177       O  0.29898581  0.53871243  0.90875833    -0.52600
C2178       C  0.28638946  0.56194169  0.91734944     0.73200
Zr2179     Zr  0.22173350  0.53336767  0.91613206     2.54700
O2180       O  0.21403932  0.58225190  0.93382290    -0.80000
O2181       O  0.20384946  0.53292472  0.96665912    -0.93500
Zr2182     Zr  0.22790664  0.52016203  0.82710001     2.64700
O2183       O  0.22580955  0.57102281  0.81779127    -0.98400
O2184       O  0.22788672  0.50853076  0.77362570    -0.80500
O2185       O  0.20044130  0.52313594  0.86984167    -0.83800
O2186       O  0.25041225  0.53067669  0.87360334    -2.18500
O2187       O  0.27654346  0.94857880  0.95111803    -0.67200
O2188       O  0.30622421  0.95658172  0.91451068    -0.51800
C2189       C  0.29741752  0.94119771  0.93588094     0.71500
O2190       O  0.19288919  0.91783951  0.82401369    -0.60100
O2191       O  0.15842081  0.94299525  0.84667596    -0.52100
C2192       C  0.16726975  0.92313453  0.82939852     0.73400
O2193       O  0.28950018  0.93349109  0.83217479    -0.71500
O2194       O  0.31427019  0.96405004  0.86238292    -0.50200
C2195       C  0.31237716  0.94409543  0.84262640     0.74700
O2196       O  0.19488215  0.91769910  0.92537037    -0.66900
O2197       O  0.15852598  0.93795260  0.90247247    -0.54100
C2198       C  0.17070935  0.91657062  0.91474720     0.73100
Zr2199     Zr  0.23074816  0.95166401  0.93046826     2.77500
O2200       O  0.23946604  0.90315979  0.94727091    -0.97600
O2201       O  0.20942978  0.96299254  0.97809409    -0.78400
Zr2202     Zr  0.23838036  0.93861637  0.83966770     2.70100
O2203       O  0.24606371  0.88764651  0.84485446    -0.79700
O2204       O  0.24186990  0.93618389  0.78531495    -0.98800
Zr2205     Zr  0.17871291  0.97886266  0.87676618     2.21500
Zr2206     Zr  0.28096382  0.99297643  0.88608076     2.11100
O2207       O  0.25820876  0.94835090  0.88720728    -2.47400
O2208       O  0.21067267  0.94183733  0.88299102    -0.79500
O2209       O  0.25342513  0.99673448  0.92940223    -0.71700
O2210       O  0.20617154  0.97579554  0.83218325    -2.32600
O2211       O  0.19837752  0.98916887  0.92437497    -2.28800
O2212       O  0.25989385  0.98349536  0.83781875    -0.73400
H2213       H  0.25975877  0.54829473  0.87007876     0.78600
H2214       H  0.19533776  0.97206471  0.81441955     0.79700
H2215       H  0.27025655  0.93238950  0.88917671     0.81900
H2216       H  0.18431648  0.99000872  0.93933253     0.79500
H2217       H  0.20842650  0.50721553  0.76783348     0.42500
H2218       H  0.22339807  0.94097256  0.77785013     0.41500
H2219       H  0.22772502  0.87959794  0.84778227     0.41200
H2220       H  0.24703033  0.89319601  0.92940528     0.39100
H2221       H  0.22109247  0.97805031  0.98690636     0.42200
H2222       H  0.18502150  0.54028952  0.96457388     0.37000
H2223       H  0.21045439  0.59324407  0.91550011     0.43100
H2224       H  0.21813288  0.57947327  0.83640694     0.39600
H2225       H  0.25471312  0.90338439  0.96179824     0.44500
H2226       H  0.21391706  0.54808172  0.97767284     0.43200
H2227       H  0.21114892  0.57312133  0.80262489     0.43300
H2228       H  0.24408043  0.91561800  0.78048813     0.43700
O2229       O  0.01992313  0.56467406  0.67622284    -0.75200
O2230       O  0.05235865  0.58467901  0.70676041    -0.54100
C2231       C  0.04497988  0.56784482  0.68558014     0.78600
O2232       O  0.43637439  0.68505019  0.69657682    -0.59800
O2233       O  0.40392355  0.65346920  0.70377123    -0.52800
C2234       C  0.41653938  0.67032152  0.68639116     0.70600
O2235       O  0.02071994  0.65509164  0.66945735    -0.74300
O2236       O  0.05568114  0.63916428  0.69822192    -0.54900
C2237       C  0.04522980  0.64632185  0.67296933     0.76600
O2238       O  0.42243549  0.57315752  0.68486502    -0.59500
O2239       O  0.39630538  0.60096017  0.71621716    -0.52600
C2240       C  0.39918974  0.58225228  0.69542072     0.73200
Zr2241     Zr  0.47276909  0.58110981  0.69385273     2.54700
O2242       O  0.46841781  0.58333646  0.63957658    -0.80000
O2243       O  0.47085786  0.52923313  0.69166327    -0.93500
Zr2244     Zr  0.48242609  0.66743497  0.70419405     2.64700
O2245       O  0.48577731  0.70015765  0.66222073    -0.98400
O2246       O  0.50042589  0.71315151  0.72169778    -0.80500
O2247       O  0.99920495  0.62282085  0.70127266    -0.83800
O2248       O  0.45297904  0.62693522  0.69900565    -2.18500
O2249       O  0.42610724  0.56180260  0.78903699    -0.67200
O2250       O  0.39939731  0.59768837  0.77149322    -0.51800
C2251       C  0.40256256  0.57379526  0.78410141     0.71500
O2252       O  0.02460862  0.64288875  0.81554175    -0.60100
O2253       O  0.05761988  0.63142594  0.78211170    -0.52100
C2254       C  0.04872640  0.63428417  0.80907076     0.73400
O2255       O  0.44166202  0.68330485  0.79058357    -0.71500
O2256       O  0.40714616  0.65372564  0.78750588    -0.50200
C2257       C  0.42082947  0.67246123  0.80240673     0.74700
O2258       O  0.02542941  0.55935048  0.79210196    -0.66900
O2259       O  0.05515513  0.58302553  0.76275364    -0.54100
C2260       C  0.04995024  0.56503561  0.78269712     0.73100
Zr2261     Zr  0.47550078  0.57338674  0.78196958     2.77500
O2262       O  0.47425830  0.57040403  0.83634193    -0.97600
O2263       O  0.47313679  0.52165695  0.77670486    -0.78400
Zr2264     Zr  0.48530477  0.65969343  0.79102787     2.70100
O2265       O  0.47794664  0.66806145  0.84430896    -0.79700
O2266       O  0.50883103  0.70505721  0.79707991    -0.98800
Zr2267     Zr  0.02996439  0.61767696  0.73824311     2.21500
Zr2268     Zr  0.42758030  0.62821241  0.74458265     2.11100
O2269       O  0.45500914  0.61980570  0.78836633    -2.47400
O2270       O  0.00473272  0.61672326  0.78234307    -0.79500
O2271       O  0.44772698  0.58144925  0.73904244    -0.71700
O2272       O  0.01360957  0.66500303  0.74438452    -2.32600
O2273       O  0.00165564  0.57621570  0.73570044    -2.28800
O2274       O  0.45670980  0.66863020  0.74876497    -0.73400
H2275       H  0.44174242  0.62671842  0.68131997     0.78600
H2276       H  0.02859571  0.67822505  0.74570361     0.79700
H2277       H  0.44398577  0.61958565  0.80617899     0.81900
H2278       H  0.01201507  0.55872342  0.73384385     0.79500
H2279       H  0.48408366  0.72537269  0.72422877     0.42500
H2280       H  0.49700673  0.71666409  0.81047554     0.41500
H2281       H  0.47770863  0.64880055  0.85293135     0.41200
H2282       H  0.47054918  0.59014108  0.84352620     0.39100
H2283       H  0.49228654  0.51497313  0.77676143     0.42200
H2284       H  0.95296822  0.52807512  0.70765167     0.37000
H2285       H  0.95141418  0.58570425  0.63371440     0.43100
H2286       H  0.49045139  0.68895323  0.64393677     0.39600
H2287       H  0.45732904  0.55990051  0.84051127     0.44500
H2288       H  0.46509185  0.52375599  0.71192229     0.43200
H2289       H  0.46729864  0.70784625  0.65844169     0.43300
H2290       H  0.52504122  0.70065703  0.80952306     0.43700
O2291       O  0.01167864  0.80018179  0.67729727    -0.75200
O2292       O  0.04491115  0.83152864  0.68410355    -0.54100
C2293       C  0.03074957  0.81509691  0.66676245     0.77400
O2294       O  0.42826093  0.91889321  0.69088403    -0.59800
O2295       O  0.40065999  0.89532583  0.72296309    -0.52800
C2296       C  0.40454953  0.91304940  0.70227224     0.70600
O2297       O  0.02610796  0.91655720  0.68406038    -0.74300
O2298       O  0.05499078  0.88361949  0.70384597    -0.54900
C2299       C  0.05042205  0.90562656  0.68834671     0.76600
O2300       O  0.42057465  0.80604289  0.70132102    -0.59500
O2301       O  0.39402782  0.84282230  0.70983299    -0.52600
C2302       C  0.40192099  0.82274559  0.69212931     0.73200
Zr2303     Zr  0.46744663  0.81680034  0.69071163     2.54700
O2304       O  0.45470138  0.83052200  0.64012885    -0.80000
O2305       O  0.45867183  0.77024275  0.66726445    -0.93500
Zr2306     Zr  0.47721657  0.90277379  0.69824699     2.64700
O2307       O  0.47568106  0.90370024  0.64372865    -0.98400
O2308       O  0.47739261  0.95453570  0.70293929    -0.80500
O2309       O  0.99762258  0.86068939  0.69164083    -0.83800
O2310       O  0.44797259  0.86265466  0.69898923    -2.18500
O2311       O  0.43777224  0.81201678  0.81139008    -0.67200
O2312       O  0.40518206  0.84161197  0.79287838    -0.51800
C2313       C  0.41597711  0.82707345  0.81433863     0.71500
O2314       O  0.04021062  0.90001504  0.79654444    -0.60100
O2315       O  0.06312214  0.87748309  0.75842289    -0.52100
C2316       C  0.06247518  0.89239934  0.78263190     0.73400
O2317       O  0.44289394  0.91612167  0.80452788    -0.71500
O2318       O  0.40741449  0.89450051  0.77972525    -0.50200
C2319       C  0.41703715  0.91228392  0.79879286     0.74700
O2320       O  0.02407453  0.79423930  0.78108977    -0.66900
O2321       O  0.05306608  0.82940728  0.77319203    -0.54100
C2322       C  0.04326664  0.81031868  0.79007293     0.73100
Zr2323     Zr  0.47652455  0.81025123  0.77789901     2.77500
O2324       O  0.48805716  0.78900777  0.82582346    -0.97600
O2325       O  0.45830607  0.76394606  0.76295304    -0.78400
Zr2326     Zr  0.48801395  0.89626691  0.78591952     2.70100
O2327       O  0.49184032  0.89509312  0.84027942    -0.79700
O2328       O  0.49645323  0.94741300  0.78564108    -0.98800
Zr2329     Zr  0.02863023  0.85226281  0.73186849     2.21500
Zr2330     Zr  0.42690443  0.86072263  0.74729501     2.11100
O2331       O  0.45896458  0.85686380  0.78724585    -2.47400
O2332       O  0.00295287  0.85284960  0.77378525    -0.79500
O2333       O  0.44482988  0.81398554  0.73819380    -0.71700
O2334       O  0.00948372  0.89899841  0.74004667    -2.32600
O2335       O  0.00035169  0.81083365  0.73054233    -2.28800
O2336       O  0.45615797  0.90181111  0.74617868    -0.73400
H2337       H  0.43462401  0.86563587  0.68340784     0.78600
H2338       H  0.02319936  0.91365669  0.74036331     0.79700
H2339       H  0.45174722  0.86002233  0.80690637     0.81900
H2340       H  0.01032917  0.79313752  0.72816796     0.79500
H2341       H  0.99215474  0.96484155  0.69498866     0.42500
H2342       H  0.48595279  0.95524552  0.80279440     0.41500
H2343       H  0.48939035  0.87481052  0.84517931     0.41200
H2344       H  0.48389277  0.80381670  0.84124778     0.39100
H2345       H  0.46903264  0.75017791  0.77479237     0.42200
H2346       H  0.45582444  0.75748525  0.68432435     0.37000
H2347       H  0.96959108  0.85362151  0.63835333     0.43100
H2348       H  0.47705604  0.92414198  0.63895490     0.39600
H2349       H  0.47430248  0.77399070  0.82872464     0.44500
H2350       H  0.47599474  0.76358742  0.65833653     0.43200
H2351       H  0.49331563  0.89535443  0.63731796     0.43300
H2352       H  0.51572299  0.94959210  0.79192605     0.43700
C2353       C  0.33928653  0.93462188  0.83107057    -0.05300
C2354       C  0.34918159  0.94703711  0.80507276    -0.32800
C2355       C  0.37661693  0.94381894  0.79677134     0.36500
C2356       C  0.39493125  0.92782310  0.81441919    -0.05700
C2357       C  0.38534756  0.91655673  0.84116796    -0.32700
C2358       C  0.35800694  0.92024053  0.84973905     0.36400
H2359       H  0.33569705  0.95979405  0.79138465     0.16800
O2360       O  0.38528809  0.95538370  0.77055528    -0.60200
H2361       H  0.39860665  0.90320536  0.85449317     0.16800
O2362       O  0.34977132  0.90967134  0.87650722    -0.60300
H2363       H  0.34829703  0.88878979  0.87301905     0.43800
H2364       H  0.37596618  0.94438523  0.75431293     0.43700
C2365       C  0.14470973  0.90708931  0.81489900    -0.05300
C2366       C  0.12454529  0.89647397  0.83385842    -0.32800
C2367       C  0.09746866  0.89306607  0.82422449     0.36500
C2368       C  0.08996858  0.89962922  0.79476849    -0.05700
C2369       C  0.11056192  0.90824499  0.77499966    -0.32700
C2370       C  0.13759965  0.91232704  0.78497093     0.36400
H2371       H  0.12951553  0.89273892  0.85699300     0.16800
O2372       O  0.07868838  0.88260074  0.84358917    -0.60200
H2373       H  0.10552733  0.91236683  0.75180030     0.16800
O2374       O  0.15661917  0.92270987  0.76575303    -0.60300
H2375       H  0.15221371  0.94324531  0.76383380     0.43800
H2376       H  0.07136716  0.89953886  0.85452813     0.43700
C2377       C  0.37635908  0.56004965  0.79228211    -0.05300
C2378       C  0.35146622  0.57415180  0.78532842    -0.32800
C2379       C  0.32618907  0.56293860  0.79302214     0.36500
C2380       C  0.32516065  0.53730828  0.80831394    -0.05700
C2381       C  0.34977305  0.52242147  0.81384058    -0.32700
C2382       C  0.37509952  0.53352152  0.80609853     0.36400
H2383       H  0.35135040  0.59446070  0.77426364     0.16800
O2384       O  0.30293111  0.57833907  0.78757357    -0.60200
H2385       H  0.34952881  0.50254330  0.82568184     0.16800
O2386       O  0.39832406  0.51838135  0.81249733    -0.60300
H2387       H  0.40137326  0.52116452  0.83435343     0.43800
H2388       H  0.29680749  0.57204497  0.76727993     0.43700
C2389       C  0.12800280  0.52857039  0.80783905    -0.05300
C2390       C  0.10403984  0.51170973  0.80846860    -0.32800
C2391       C  0.07812380  0.52310155  0.80171234     0.36500
C2392       C  0.07552305  0.55196208  0.79475169    -0.05700
C2393       C  0.09954142  0.56864015  0.79421776    -0.32700
C2394       C  0.12536510  0.55713142  0.79986254     0.36400
H2395       H  0.10534964  0.48950125  0.81451957     0.16800
O2396       O  0.05574671  0.50576717  0.80152057    -0.60200
H2397       H  0.09845599  0.59096685  0.78863306     0.16800
O2398       O  0.14769222  0.57445952  0.79875043    -0.60300
H2399       H  0.15458501  0.57216748  0.77802285     0.43800
H2400       H  0.05430442  0.49808755  0.78069876     0.43700
C2401       C  0.32582326  0.94815473  0.67793199    -0.05300
C2402       C  0.34941892  0.96559878  0.67857499    -0.32800
C2403       C  0.37539040  0.95467326  0.68537887     0.36500
C2404       C  0.37849844  0.92569931  0.69138203    -0.05700
C2405       C  0.35488110  0.90844874  0.69152727    -0.32700
C2406       C  0.32889381  0.91938443  0.68506176     0.36400
H2407       H  0.34792616  0.98785798  0.67282652     0.16800
O2408       O  0.39738260  0.97255370  0.68648293    -0.60200
H2409       H  0.35654166  0.88604427  0.69665387     0.16800
O2410       O  0.30689510  0.90149610  0.68470394    -0.60300
H2411       H  0.30786479  0.89079670  0.66534240     0.43800
H2412       H  0.39686258  0.98177029  0.70667729     0.43700
C2413       C  0.12844441  0.94052150  0.66101634    -0.05300
C2414       C  0.10462262  0.95774814  0.66094451    -0.32800
C2415       C  0.07888642  0.94690664  0.66854292     0.36500
C2416       C  0.07625709  0.91818814  0.67634402    -0.05700
C2417       C  0.10025254  0.90105527  0.67617253    -0.32700
C2418       C  0.12587931  0.91190111  0.66874701     0.36400
H2419       H  0.10594851  0.97990499  0.65477798     0.16800
O2420       O  0.05680710  0.96488270  0.66930590    -0.60200
H2421       H  0.09935081  0.87879656  0.68200328     0.16800
O2422       O  0.14812555  0.89409102  0.66842993    -0.60300
H2423       H  0.14686442  0.88325101  0.64916145     0.43800
H2424       H  0.04844019  0.96320273  0.64905755     0.43700
C2425       C  0.37286350  0.57191055  0.68351755    -0.05300
C2426       C  0.35550558  0.55729642  0.70281236    -0.32800
C2427       C  0.32792232  0.55310049  0.69550190     0.36500
C2428       C  0.31694722  0.56438949  0.66903878    -0.05700
C2429       C  0.33404864  0.58016343  0.65052673    -0.32700
C2430       C  0.36171302  0.58386994  0.65750895     0.36400
H2431       H  0.36341334  0.54919864  0.72372357     0.16800
O2432       O  0.31210212  0.53692092  0.71368424    -0.60200
H2433       H  0.32625003  0.58809410  0.62949352     0.16800
O2434       O  0.37744614  0.60007232  0.63927939    -0.60300
H2435       H  0.38912654  0.58628213  0.62811845     0.43800
H2436       H  0.31461623  0.51698300  0.70637312     0.43700
C2437       C  0.12289384  0.54719971  0.65086441    -0.05300
C2438       C  0.11640226  0.53978608  0.68012773    -0.32800
C2439       C  0.08959422  0.54267137  0.69055952     0.36500
C2440       C  0.06858865  0.55307547  0.67163538    -0.05700
C2441       C  0.07480141  0.55840693  0.64180108    -0.32700
C2442       C  0.10159844  0.55574438  0.63145769     0.36400
H2443       H  0.13199132  0.53118982  0.69476004     0.16800
O2444       O  0.08404521  0.53589879  0.71962974    -0.60200
H2445       H  0.05924616  0.56611823  0.62676544     0.16800
O2446       O  0.10698032  0.56231832  0.60234025    -0.60300
H2447       H  0.10163136  0.54522893  0.59028947     0.43800
H2448       H  0.09371047  0.55036723  0.73217428     0.43700
C2449       C  0.31040715  0.84576643  0.56785429    -0.05300
C2450       C  0.32321504  0.86273126  0.59028286    -0.32800
C2451       C  0.32018305  0.89280872  0.59113427     0.36500
C2452       C  0.30504979  0.90660155  0.56851407    -0.05700
C2453       C  0.29158806  0.88916002  0.54706095    -0.32700
C2454       C  0.29277270  0.85941670  0.54773405     0.36400
H2455       H  0.33735439  0.85286942  0.60570819     0.16800
O2456       O  0.33263250  0.90838616  0.61361375    -0.60200
H2457       H  0.27984017  0.89855538  0.52931431     0.16800
O2458       O  0.27986872  0.84397821  0.52540241    -0.60300
H2459       H  0.26326547  0.83640854  0.53480047     0.43800
H2460       H  0.35224396  0.90838513  0.60858467     0.43700
C2461       C  0.33188772  0.64217590  0.55721442    -0.05300
C2462       C  0.34952804  0.61826769  0.55904028    -0.32800
C2463       C  0.33932466  0.59051671  0.56254337     0.36500
C2464       C  0.31108983  0.58632030  0.56355507    -0.05700
C2465       C  0.29388453  0.61061351  0.56435373    -0.32700
C2466       C  0.30396423  0.63814307  0.56128843     0.36400
H2467       H  0.37124761  0.62097412  0.55627716     0.16800
O2468       O  0.35689435  0.56774007  0.56270544    -0.60200
H2469       H  0.27207569  0.60827487  0.56649887     0.16800
O2470       O  0.28599467  0.66052057  0.55933078    -0.60300
H2471       H  0.28248571  0.66663154  0.58034913     0.43800
H2472       H  0.36291857  0.56616301  0.58385623     0.43700
C2473       C  0.30835470  0.91178289  0.94021658    -0.05300
C2474       C  0.30537253  0.89080096  0.91721096    -0.32800
C2475       C  0.30839198  0.86141432  0.92287364     0.36500
C2476       C  0.31502199  0.85231614  0.95190748    -0.05700
C2477       C  0.31944850  0.87368759  0.97434150    -0.32700
C2478       C  0.31582807  0.90278908  0.96882884     0.36400
H2479       H  0.29938829  0.89690697  0.89490548     0.16800
O2480       O  0.30437407  0.84195513  0.89995606    -0.60200
H2481       H  0.32552549  0.86796032  0.99673304     0.16800
O2482       O  0.31878521  0.92230449  0.99191488    -0.60300
H2483       H  0.33828014  0.92766020  0.99183648     0.43800
H2484       H  0.28458131  0.83790585  0.90001952     0.43700
C2485       C  0.30048643  0.59005766  0.92130947    -0.05300
C2486       C  0.28548971  0.61545123  0.91602332    -0.32800
C2487       C  0.29601035  0.64261870  0.92321054     0.36500
C2488       C  0.32219362  0.64516063  0.93577690    -0.05700
C2489       C  0.33769395  0.61976113  0.93943933    -0.32700
C2490       C  0.32719498  0.59265052  0.93212796     0.36400
H2491       H  0.26495793  0.61425231  0.90703361     0.16800
O2492       O  0.28002556  0.66628224  0.91902487    -0.60200
H2493       H  0.35806018  0.62069864  0.94888498     0.16800
O2494       O  0.34255111  0.56885036  0.93773577    -0.60300
H2495       H  0.35404384  0.56602339  0.91975363     0.43800
H2496       H  0.26954050  0.66873707  0.93780094     0.43700
C2497       C  0.40305678  0.83690677  0.90988463    -0.05300
C2498       C  0.37999080  0.83357053  0.89080077    -0.32800
C2499       C  0.38278656  0.83187498  0.85912913     0.36500
C2500       C  0.40890707  0.83319741  0.84643139    -0.05700
C2501       C  0.43107415  0.83965616  0.86562256    -0.32700
C2502       C  0.42839810  0.84132732  0.89667418     0.36400
H2503       H  0.36015202  0.83025519  0.90042951     0.16800
O2504       O  0.36025742  0.82774709  0.84125169    -0.60200
H2505       H  0.45125940  0.84221100  0.85657388     0.16800
O2506       O  0.45105990  0.84636965  0.91415514    -0.60300
H2507       H  0.46151041  0.82821681  0.91381005     0.43800
H2508       H  0.36002689  0.80702698  0.83642598     0.43700
C2509       C  0.39544348  0.82295971  0.65933425    -0.05300
C2510       C  0.39364687  0.84883581  0.64370662    -0.32800
C2511       C  0.39667839  0.84933782  0.61221247     0.36500
C2512       C  0.40092665  0.82376478  0.59585996    -0.05700
C2513       C  0.40014853  0.79796498  0.61139480    -0.32700
C2514       C  0.39723324  0.79738617  0.64247327     0.36400
H2515       H  0.39215297  0.86887360  0.65601198     0.16800
O2516       O  0.39724158  0.87492662  0.59802043    -0.60200
H2517       H  0.40206440  0.77781719  0.59943321     0.16800
O2518       O  0.39767416  0.77157806  0.65635046    -0.60300
H2519       H  0.37827984  0.76673176  0.65937015     0.43800
H2520       H  0.41664560  0.88067870  0.59839596     0.43700
C2521       C  0.41563437  0.67908889  0.83467438    -0.05300
C2522       C  0.40268878  0.65927654  0.85297258    -0.32800
C2523       C  0.40295987  0.66268692  0.88451314     0.36500
C2524       C  0.41733429  0.68552810  0.89828533    -0.05700
C2525       C  0.42996108  0.70523210  0.87970021    -0.32700
C2526       C  0.42825653  0.70289791  0.84858114     0.36400
H2527       H  0.39307864  0.64062323  0.84294127     0.16800
O2528       O  0.38993433  0.64310422  0.90154906    -0.60200
H2529       H  0.44098674  0.72322217  0.88920839     0.16800
O2530       O  0.44043400  0.72343824  0.83195543    -0.60300
H2531       H  0.42677076  0.73900085  0.83053238     0.43800
H2532       H  0.37030507  0.64570165  0.89697192     0.43700
C2533       C  0.41192932  0.67084908  0.58971648    -0.05300
C2534       C  0.38789878  0.67288183  0.60673878    -0.32800
C2535       C  0.38845968  0.67115351  0.63818050     0.36500
C2536       C  0.41340025  0.66746350  0.65314231    -0.05700
C2537       C  0.43681660  0.66211143  0.63578477    -0.32700
C2538       C  0.43632763  0.66402208  0.60451109     0.36400
H2539       H  0.36904282  0.67914126  0.59614385     0.16800
O2540       O  0.36494551  0.67527864  0.65404873    -0.60200
H2541       H  0.45600497  0.65749247  0.64662910     0.16800
O2542       O  0.46031709  0.66230675  0.58905966    -0.60300
H2543       H  0.46228184  0.64191147  0.58316004     0.43800
H2544       H  0.36142353  0.69610659  0.65377186     0.43700
C2545       C  0.15795353  0.88789641  0.91525741    -0.05300
C2546       C  0.12971611  0.88481941  0.91471055    -0.32800
C2547       C  0.11805114  0.85775109  0.91622014     0.36500
C2548       C  0.13460265  0.83300356  0.91947344    -0.05700
C2549       C  0.16276269  0.83588034  0.91807634    -0.32700
C2550       C  0.17446019  0.86285001  0.91577053     0.36400
H2551       H  0.11661527  0.90342302  0.91352887     0.16800
O2552       O  0.09022780  0.85588222  0.91613562    -0.60200
H2553       H  0.17587256  0.81744422  0.92073816     0.16800
O2554       O  0.20228840  0.86437398  0.91500018    -0.60300
H2555       H  0.20695538  0.86301057  0.89347197     0.43800
H2556       H  0.08542876  0.84947580  0.89549271     0.43700
C2557       C  0.13290906  0.62615749  0.92867077    -0.05300
C2558       C  0.14215551  0.62275487  0.89930180    -0.32800
C2559       C  0.14626160  0.59541325  0.88663490     0.36500
C2560       C  0.14159738  0.57062832  0.90344603    -0.05700
C2561       C  0.12986069  0.57382490  0.93160731    -0.32700
C2562       C  0.12524277  0.60106466  0.94417490     0.36400
H2563       H  0.14735940  0.64121144  0.88646421     0.16800
O2564       O  0.15673362  0.59297954  0.85831156    -0.60200
H2565       H  0.12649553  0.55526722  0.94510685     0.16800
O2566       O  0.11448419  0.60261055  0.97243738    -0.60300
H2567       H  0.09458552  0.60018606  0.96955972     0.43800
H2568       H  0.17552006  0.60054974  0.85980603     0.43700
C2569       C  0.15032530  0.90338215  0.55038012    -0.05300
C2570       C  0.14992331  0.88223254  0.57233432    -0.32800
C2571       C  0.14174567  0.85418820  0.56520502     0.36500
C2572       C  0.13429924  0.84685841  0.53559800    -0.05700
C2573       C  0.13449427  0.86830183  0.51382207    -0.32700
C2574       C  0.14242233  0.89619098  0.52100786     0.36400
H2575       H  0.15723491  0.88720776  0.59479568     0.16800
O2576       O  0.14136234  0.83420401  0.58714462    -0.60200
H2577       H  0.12886216  0.86329680  0.49077807     0.16800
O2578       O  0.14420255  0.91575090  0.49872713    -0.60300
H2579       H  0.12631385  0.92564548  0.49856466     0.43800
H2580       H  0.12427510  0.83792163  0.59824026     0.43700
C2581       C  0.16221468  0.58210983  0.54634008    -0.05300
C2582       C  0.15557962  0.59779341  0.57254867    -0.32800
C2583       C  0.15077276  0.62751829  0.57195691     0.36500
C2584       C  0.15398553  0.64241785  0.54517208    -0.05700
C2585       C  0.16306241  0.62701795  0.51977084    -0.32700
C2586       C  0.16629960  0.59733233  0.51984069     0.36400
H2587       H  0.15414798  0.58703694  0.59367461     0.16800
O2588       O  0.14297323  0.64183905  0.59757650    -0.60200
H2589       H  0.16476329  0.63771206  0.49858326     0.16800
O2590       O  0.17182880  0.58319048  0.49335383    -0.60300
H2591       H  0.18923318  0.59111602  0.48624510     0.43800
H2592       H  0.12696306  0.63149483  0.60512449     0.43700
C2593       C  0.05017814  0.80960620  0.82225197    -0.05300
C2594       C  0.03954775  0.83109060  0.84151937    -0.32800
C2595       C  0.03727150  0.82686981  0.87265153     0.36500
C2596       C  0.04555912  0.80073566  0.88459888    -0.05700
C2597       C  0.05737272  0.78001161  0.86528075    -0.32700
C2598       C  0.05958261  0.78418781  0.83458033     0.36400
H2599       H  0.03097773  0.85025627  0.83208881     0.16800
O2600       O  0.02467863  0.84703900  0.89048020    -0.60200
H2601       H  0.06381938  0.75959028  0.87377529     0.16800
O2602       O  0.06883401  0.76229677  0.81645351    -0.60300
H2603       H  0.08892981  0.76419776  0.81658809     0.43800
H2604       H  0.03630156  0.86421899  0.88979343     0.43700
C2605       C  0.03412138  0.81509114  0.56987771    -0.05300
C2606       C  0.05751029  0.82285918  0.58669907    -0.32800
C2607       C  0.05703874  0.82376867  0.61837443     0.36500
C2608       C  0.03334318  0.81560078  0.63350545    -0.05700
C2609       C  0.01000143  0.80913412  0.61633538    -0.32700
C2610       C  0.00986102  0.81027482  0.58523133     0.36400
H2611       H  0.07657530  0.82644059  0.57541073     0.16800
O2612       O  0.08028803  0.83044138  0.63412496    -0.60200
H2613       H  0.99153754  0.80273685  0.62700989     0.16800
O2614       O  0.98619344  0.80445286  0.56989924    -0.60300
H2615       H  0.97739771  0.82328092  0.56707971     0.43800
H2616       H  0.08080878  0.85156200  0.63485055     0.43700
C2617       C  0.07214696  0.64118721  0.89584190    -0.05300
C2618       C  0.05774037  0.61664763  0.88752679    -0.32800
C2619       C  0.05449421  0.60952437  0.85699430     0.36500
C2620       C  0.06565104  0.62727843  0.83503185    -0.05700
C2621       C  0.08454791  0.64770019  0.84365481    -0.32700
C2622       C  0.08712307  0.65552567  0.87380572     0.36400
H2623       H  0.04599225  0.60550678  0.90399012     0.16800
O2624       O  0.03634520  0.58865335  0.84874351    -0.60200
H2625       H  0.09305132  0.66151442  0.82700856     0.16800
O2626       O  0.09976514  0.68078312  0.88080259    -0.60300
H2627       H  0.11808264  0.67945017  0.87168757     0.43800
H2628       H  0.04563665  0.57042406  0.85332668     0.43700
C2629       C  0.06892504  0.65478395  0.58492961    -0.05300
C2630       C  0.05302657  0.63149621  0.59208335    -0.32800
C2631       C  0.04802161  0.62593058  0.62210725     0.36500
C2632       C  0.06028509  0.64272922  0.64506128    -0.05700
C2633       C  0.07969065  0.66296623  0.63775600    -0.32700
C2634       C  0.08395379  0.66927494  0.60766712     0.36400
H2635       H  0.04118336  0.62055308  0.57482266     0.16800
O2636       O  0.02778264  0.60716613  0.62883042    -0.60200
H2637       H  0.08866188  0.67648554  0.65513192     0.16800
O2638       O  0.09952899  0.69243764  0.60073290    -0.60300
H2639       H  0.11785922  0.68886005  0.60935388     0.43800
H2640       H  0.01051465  0.61724945  0.62415919     0.43700
O2641       O  0.64444655  0.19503593  0.04120744    -0.75200
O2642       O  0.61507832  0.16044995  0.02433238    -0.54100
C2643       C  0.63678072  0.16854026  0.03764446     0.78600
O2644       O  0.52297462  0.28340545  0.03135301    -0.59800
O2645       O  0.55323262  0.31658872  0.02075701    -0.52800
C2646       C  0.53588646  0.30606024  0.03862557     0.70600
O2647       O  0.55877781  0.19900585  0.06361938    -0.74300
O2648       O  0.56738402  0.15976060  0.03476141    -0.54900
C2649       C  0.56497335  0.17257467  0.06042798     0.76600
O2650       O  0.63438051  0.29601248  0.03513810    -0.59500
O2651       O  0.60523390  0.32121155  0.00547772    -0.52600
C2652       C  0.62504418  0.31958408  0.02408361     0.73200
Zr2653     Zr  0.62523175  0.24373046  0.02825204     2.54700
O2654       O  0.62593137  0.24750367  0.08269494    -0.80000
O2655       O  0.67434499  0.24963672  0.02511291    -0.93500
Zr2656     Zr  0.54205088  0.23556817  0.03125786     2.64700
O2657       O  0.52857658  0.24364359  0.08307679    -0.98400
O2658       O  0.49851675  0.21094602  0.03116049    -0.80500
O2659       O  0.58607886  0.21541480  0.03109649    -0.83800
O2660       O  0.58108704  0.26563127  0.02846635    -2.18500
O2661       O  0.63475235  0.28293944  0.42562733    -0.67200
O2662       O  0.60481831  0.31362090  0.44823730    -0.51800
C2663       C  0.62402092  0.30811810  0.43013606     0.71500
O2664       O  0.55643327  0.18333155  0.41774401    -0.60100
O2665       O  0.57401656  0.15059189  0.44943049    -0.52100
C2666       C  0.56685282  0.15892406  0.42310667     0.73400
O2667       O  0.53882431  0.26945813  0.41364104    -0.71500
O2668       O  0.55529644  0.30812106  0.43947797    -0.50200
C2669       C  0.54574187  0.29583846  0.41550193     0.74700
O2670       O  0.63210375  0.18066657  0.42660465    -0.66900
O2671       O  0.62744063  0.15758916  0.46960782    -0.54100
C2672       C  0.63179551  0.15729148  0.44176246     0.73100
Zr2673     Zr  0.62663136  0.23258076  0.44204972     2.77500
O2674       O  0.63309960  0.23265206  0.38802262    -0.97600
O2675       O  0.67586754  0.22975133  0.44826831    -0.78400
Zr2676     Zr  0.54432003  0.22672295  0.44357156     2.70100
O2677       O  0.51681306  0.22197117  0.39799025    -0.79700
O2678       O  0.49881994  0.21550810  0.46106874    -0.98800
Zr2679     Zr  0.58994115  0.18159960  0.49125725     2.21500
Zr2680     Zr  0.57533330  0.28833489  0.98129708     2.11100
O2681       O  0.58379849  0.25531801  0.43969277    -2.47400
O2682       O  0.58710368  0.20881950  0.45046039    -0.79500
O2683       O  0.62450593  0.26525624  0.48348528    -0.71700
O2684       O  0.54074882  0.20220070  0.99030288    -2.32600
O2685       O  0.63024418  0.21061053  0.48902616    -2.28800
O2686       O  0.53553613  0.26006833  0.98546254    -0.73400
H2687       H  0.58122530  0.27903488  0.04511372     0.78600
H2688       H  0.52761235  0.18710337  0.99222188     0.79700
H2689       H  0.58522840  0.26449704  0.42084068     0.81900
H2690       H  0.64719845  0.20011393  0.48975628     0.79500
H2691       H  0.49859622  0.20015894  0.04997558     0.42500
H2692       H  0.49018571  0.23423497  0.46524780     0.41500
H2693       H  0.53001236  0.21932190  0.38151506     0.41200
H2694       H  0.61835268  0.24500237  0.38026225     0.39100
H2695       H  0.68050330  0.24625948  0.46147863     0.42200
H2696       H  0.67952304  0.25965221  0.04404489     0.37000
H2697       H  0.60903605  0.25804136  0.08786871     0.43100
H2698       H  0.54026874  0.25937232  0.09061521     0.39600
H2699       H  0.64998215  0.24365805  0.38510679     0.44500
H2700       H  0.67684441  0.26398382  0.00943702     0.43200
H2701       H  0.50993785  0.25163072  0.08207902     0.43300
H2702       H  0.48890327  0.20760996  0.44341271     0.43700
O2703       O  0.91711937  0.21672223  0.06660096    -0.75200
O2704       O  0.90669938  0.17861345  0.03638623    -0.54100
C2705       C  0.91257936  0.19007713  0.06222624     0.78600
O2706       O  0.82204178  0.29794868  0.06228414    -0.59800
O2707       O  0.84609572  0.33300803  0.03929982    -0.52800
C2708       C  0.82864798  0.32452715  0.05802095     0.70600
O2709       O  0.83127503  0.19616402  0.05417162    -0.74300
O2710       O  0.85629368  0.16849852  0.52617295    -0.54900
C2711       C  0.84138338  0.17175153  0.04499162     0.76600
O2712       O  0.92544447  0.30881646  0.05408945    -0.59500
O2713       O  0.88899396  0.33586059  0.04460521    -0.52600
C2714       C  0.90678093  0.32590013  0.06309983     0.73200
Zr2715     Zr  0.91997792  0.25945032  0.03747853     2.54700
O2716       O  0.94692350  0.26179887  0.08372637    -0.80000
O2717       O  0.96600778  0.25703094  0.01808914    -0.93500
Zr2718     Zr  0.83709912  0.24852303  0.04430604     2.64700
O2719       O  0.84238194  0.24385126  0.09827610    -0.98400
O2720       O  0.78775464  0.24480294  0.04619213    -0.80500
O2721       O  0.88140537  0.22948805  0.03867219    -0.83800
O2722       O  0.87538899  0.27855153  0.04270231    -2.18500
O2723       O  0.91925720  0.30974758  0.45299575    -0.67200
O2724       O  0.88270594  0.33675396  0.45852798    -0.51800
C2725       C  0.90247519  0.32779294  0.44217892     0.71500
O2726       O  0.82160515  0.19713777  0.44092938    -0.60100
O2727       O  0.85081510  0.16911534  0.46733908    -0.52100
C2728       C  0.83153889  0.17237085  0.44846845     0.73400
O2729       O  0.81680627  0.29938018  0.44080305    -0.71500
O2730       O  0.82310737  0.31630658  0.48661007    -0.50200
C2731       C  0.81752368  0.32082078  0.45945751     0.74700
O2732       O  0.92925019  0.21128406  0.44081900    -0.66900
O2733       O  0.89789734  0.17852426  0.44828042    -0.54100
C2734       C  0.91443620  0.19098792  0.43079576     0.73100
Zr2735     Zr  0.91149736  0.25862675  0.45013540     2.77500
O2736       O  0.90232696  0.26194461  0.39644282    -0.97600
O2737       O  0.95857200  0.26486612  0.43488092    -0.78400
Zr2738     Zr  0.82927299  0.24921068  0.45501213     2.70100
O2739       O  0.82310126  0.24732401  0.40084833    -0.79700
O2740       O  0.78019668  0.24881371  0.46201856    -0.98800
Zr2741     Zr  0.87958301  0.20002007  0.49476690     2.21500
Zr2742     Zr  0.86921291  0.30742578  0.50086014     2.11100
O2743       O  0.86777870  0.28007475  0.45439902    -2.47400
O2744       O  0.87309900  0.22774282  0.45112593    -0.79500
O2745       O  0.91326811  0.28635469  0.49571311    -0.71700
O2746       O  0.83496093  0.22122362  0.49861087    -2.32600
O2747       O  0.91952830  0.22848463  0.49262846    -2.28800
O2748       O  0.83022615  0.27639155  0.50110823    -0.73400
H2749       H  0.87341196  0.28841797  0.06157197     0.78600
H2750       H  0.82081812  0.20706408  0.49932912     0.79700
H2751       H  0.86500397  0.29181246  0.43719894     0.81900
H2752       H  0.93576853  0.21676035  0.49232453     0.79500
H2753       H  0.78420620  0.23514680  0.06525785     0.42500
H2754       H  0.77511730  0.22846292  0.46018101     0.41500
H2755       H  0.84165937  0.24426718  0.39288919     0.41200
H2756       H  0.88477444  0.27215530  0.39446830     0.39100
H2757       H  0.95809187  0.26638725  0.41282364     0.42200
H2758       H  0.97761303  0.26231629  0.03547172     0.37000
H2759       H  0.95940190  0.24516950  0.08287763     0.43100
H2760       H  0.86218242  0.24590988  0.10199340     0.39600
H2761       H  0.91599579  0.27528232  0.38878334     0.44500
H2762       H  0.96733816  0.27351060  0.00470997     0.43200
H2763       H  0.83424085  0.26143919  0.10704423     0.43300
H2764       H  0.77770091  0.25374418  0.48348800     0.43700
O2765       O  0.67162428  0.04919317  0.14712391    -0.75200
O2766       O  0.64647063  0.02221782  0.11392305    -0.54100
C2767       C  0.64865176  0.04012252  0.13558311     0.78600
O2768       O  0.77400943  0.06010231  0.05093768    -0.59800
O2769       O  0.80644827  0.03867794  0.07935881    -0.52800
C2770       C  0.79731361  0.05988246  0.06398682     0.70600
O2771       O  0.68904583  0.04369310  0.02983402    -0.74300
O2772       O  0.66016034  0.03674694  0.06726005    -0.54900
C2773       C  0.66989697  0.05248731  0.04670845     0.76600
O2774       O  0.76847975  0.05833185  0.15790181    -0.59500
O2775       O  0.80215068  0.03045258  0.13733874    -0.52600
C2776       C  0.79385308  0.05080503  0.15419140     0.73200
Zr2777     Zr  0.72220814  0.04231473  0.13890301     2.54700
O2778       O  0.71642455  0.09302608  0.13021146    -0.80000
O2779       O  0.71722992  0.04952521  0.19281294    -0.93500
Zr2780     Zr  0.73325934  0.03171732  0.04920794     2.64700
O2781       O  0.72587322  0.07876237  0.02825854    -0.98400
O2782       O  0.75305305  0.01702525  0.00151275    -0.80500
O2783       O  0.70758525  0.03077662  0.09154327    -0.83800
O2784       O  0.75198858  0.04014357  0.09786609    -2.18500
O2785       O  0.77591955  0.45002239  0.16718889    -0.67200
O2786       O  0.80582357  0.47878120  0.14332201    -0.51800
C2787       C  0.80035165  0.45993805  0.16245136     0.71500
O2788       O  0.69507216  0.42581455  0.04749559    -0.60100
O2789       O  0.65891167  0.45354904  0.06144314    -0.52100
C2790       C  0.66963666  0.43020507  0.05097371     0.73400
O2791       O  0.78476827  0.44936198  0.04816860    -0.71500
O2792       O  0.81031255  0.45907554  0.08776668    -0.50200
C2793       C  0.80217589  0.44115597  0.06744833     0.74700
O2794       O  0.67774025  0.44618105  0.15624823    -0.66900
O2795       O  0.65037603  0.46864461  0.12233484    -0.54100
C2796       C  0.65392706  0.45279712  0.14490543     0.73100
Zr2797     Zr  0.72745861  0.45828997  0.14833914     2.77500
O2798       O  0.72905903  0.40651251  0.15085338    -0.97600
O2799       O  0.72296856  0.46279450  0.20251910    -0.78400
Zr2800     Zr  0.73691266  0.44922956  0.05965102     2.70100
O2801       O  0.74382829  0.40152671  0.07892804    -0.79700
O2802       O  0.73824719  0.42742457  0.00992232    -0.98800
Zr2803     Zr  0.67960869  0.49342000  0.09011857     2.21500
Zr2804     Zr  0.78084665  0.99946635  0.10293546     2.11100
O2805       O  0.75751084  0.45578769  0.10730485    -2.47400
O2806       O  0.70653412  0.45270110  0.10032309    -0.79500
O2807       O  0.75143379  0.00250421  0.14594823    -0.71700
O2808       O  0.70730022  0.98852401  0.04748988    -2.32600
O2809       O  0.69853166  0.49802656  0.13992390    -2.28800
O2810       O  0.76133414  0.99120657  0.05453666    -0.73400
H2811       H  0.76105059  0.05812795  0.10049392     0.78600
H2812       H  0.69680370  0.98584518  0.02929785     0.79700
H2813       H  0.76948965  0.43995358  0.11129724     0.81900
H2814       H  0.68482413  0.49890723  0.15526109     0.79500
H2815       H  0.76516406  0.03289200  0.99614989     0.42500
H2816       H  0.75682327  0.43107447  0.00262803     0.41500
H2817       H  0.72572401  0.39551719  0.08592714     0.41200
H2818       H  0.74842819  0.40142441  0.14768267     0.39100
H2819       H  0.70502514  0.47205282  0.20562884     0.42200
H2820       H  0.72338674  0.03135151  0.20153359     0.37000
H2821       H  0.71437478  0.09435517  0.10820330     0.43100
H2822       H  0.73026211  0.09255483  0.04466070     0.39600
H2823       H  0.72581052  0.40249550  0.17220200     0.44500
H2824       H  0.73142815  0.06345949  0.19881728     0.43200
H2825       H  0.74034608  0.08123769  0.01324181     0.43300
H2826       H  0.73740759  0.40661452  0.01296408     0.43700
O2827       O  0.68355373  0.05226315  0.39327654    -0.75200
O2828       O  0.65066442  0.02009330  0.39837119    -0.54100
C2829       C  0.65872832  0.04633965  0.39779938     0.78600
O2830       O  0.77692821  0.03262189  0.31482505    -0.59800
O2831       O  0.80628241  0.01830591  0.35161603    -0.52800
C2832       C  0.80123735  0.02949993  0.32641583     0.70600
O2833       O  0.67805512  0.02994615  0.31611345    -0.74300
O2834       O  0.65068040  0.99939576  0.34104933    -0.54900
C2835       C  0.65428962  0.01886118  0.32215745     0.76600
O2836       O  0.76095174  0.06129554  0.42685396    -0.59500
O2837       O  0.79904226  0.03784375  0.41128153    -0.52600
C2838       C  0.78636881  0.06044745  0.42131640     0.73200
Zr2839     Zr  0.72180029  0.03214019  0.41916502     2.54700
O2840       O  0.71735100  0.08056324  0.43953507    -0.80000
O2841       O  0.70313927  0.02947480  0.46920560    -0.93500
Zr2842     Zr  0.72834808  0.02274252  0.32942958     2.64700
O2843       O  0.72840372  0.07435810  0.32485845    -0.98400
O2844       O  0.72612292  0.01504690  0.27537238    -0.80500
O2845       O  0.70096209  0.02387621  0.37226087    -0.83800
O2846       O  0.75043486  0.03118028  0.37655975    -2.18500
O2847       O  0.77587124  0.44804616  0.45002490    -0.67200
O2848       O  0.80615536  0.45630210  0.41415204    -0.51800
C2849       C  0.79693555  0.44067926  0.43515259     0.71500
O2850       O  0.69282621  0.42069398  0.32129678    -0.60100
O2851       O  0.65847053  0.44529241  0.34483561    -0.52100
C2852       C  0.66724960  0.42630535  0.32653412     0.73400
O2853       O  0.78920079  0.43418457  0.33062952    -0.71500
O2854       O  0.81411890  0.46540160  0.35985586    -0.50200
C2855       C  0.81213859  0.44507292  0.34048066     0.74700
O2856       O  0.69519207  0.41687385  0.42031318    -0.66900
O2857       O  0.65848691  0.43875069  0.39977828    -0.54100
C2858       C  0.67083736  0.41664486  0.41011610     0.73100
Zr2859     Zr  0.73042077  0.45108239  0.42856632     2.77500
O2860       O  0.73771619  0.40248776  0.44588835    -0.97600
O2861       O  0.70825560  0.46152430  0.47598461    -0.78400
Zr2862     Zr  0.73830289  0.43994121  0.33896152     2.70100
O2863       O  0.74396606  0.38908039  0.34698473    -0.79700
O2864       O  0.74290668  0.43448009  0.28486607    -0.98800
Zr2865     Zr  0.67894460  0.47999064  0.37587737     2.21500
Zr2866     Zr  0.78121413  0.49332128  0.38600396     2.11100
O2867       O  0.75899944  0.44817273  0.38620564    -2.47400
O2868       O  0.71348250  0.44885911  0.38116841    -0.79500
O2869       O  0.75321488  0.49600868  0.42910695    -0.71700
O2870       O  0.70666487  0.47764769  0.33142542    -2.32600
O2871       O  0.69832930  0.48894778  0.42382292    -2.28800
O2872       O  0.76000548  0.48474515  0.33753744    -0.73400
H2873       H  0.75974670  0.04897508  0.37395387     0.78600
H2874       H  0.69600025  0.47427902  0.31347098     0.79700
H2875       H  0.77106285  0.43224166  0.38769416     0.81900
H2876       H  0.68417306  0.48959099  0.43868327     0.79500
H2877       H  0.73687361  0.99743289  0.27168498     0.42500
H2878       H  0.72575086  0.44228080  0.27651017     0.41500
H2879       H  0.75034990  0.38766849  0.36799146     0.41200
H2880       H  0.74518726  0.39198363  0.42831221     0.39100
H2881       H  0.71882569  0.47755795  0.48465167     0.42200
H2882       H  0.68467643  0.03785623  0.46741238     0.37000
H2883       H  0.69853631  0.08673352  0.43477392     0.43100
H2884       H  0.70932075  0.07940598  0.31993595     0.39600
H2885       H  0.75286699  0.40277612  0.46057687     0.44500
H2886       H  0.71375567  0.04358052  0.48110180     0.43200
H2887       H  0.73849934  0.07772096  0.30617285     0.43300
H2888       H  0.74162312  0.41366675  0.28100942     0.43700
O2889       O  0.51957603  0.06336438  0.17538084    -0.75200
O2890       O  0.55156437  0.08416038  0.20582743    -0.54100
C2891       C  0.54452940  0.06716097  0.18465998     0.78600
O2892       O  0.93699128  0.18651635  0.19604384    -0.59800
O2893       O  0.90421341  0.15533658  0.20373074    -0.52800
C2894       C  0.91689213  0.17198713  0.18623226     0.70600
O2895       O  0.52102489  0.15393186  0.17122198    -0.74300
O2896       O  0.55552012  0.13817875  0.20065969    -0.54900
C2897       C  0.54564369  0.14574955  0.17531947     0.76600
O2898       O  0.92264625  0.07459574  0.18399372    -0.59500
O2899       O  0.89659326  0.10262745  0.21514672    -0.52600
C2900       C  0.89940301  0.08385064  0.19442149     0.73200
Zr2901     Zr  0.97300607  0.08211630  0.19360681     2.54700
O2902       O  0.97018930  0.08480964  0.13926891    -0.80000
O2903       O  0.96723989  0.03057179  0.19076315    -0.93500
Zr2904     Zr  0.98291524  0.16849576  0.20251825     2.64700
O2905       O  0.98542990  0.19924614  0.15884624    -0.98400
O2906       O  0.00051077  0.21432468  0.22043020    -0.80500
O2907       O  0.49878201  0.12071264  0.20127132    -0.83800
O2908       O  0.95324065  0.12794165  0.19823209    -2.18500
O2909       O  0.92704403  0.06354924  0.28973728    -0.67200
O2910       O  0.89991619  0.09809395  0.27018434    -0.51800
C2911       C  0.90335110  0.07484651  0.28400987     0.71500
O2912       O  0.52402644  0.13961055  0.31618829    -0.60100
O2913       O  0.55687663  0.12903826  0.28233860    -0.52100
C2914       C  0.54830067  0.13189132  0.30940114     0.73400
O2915       O  0.94060311  0.18525534  0.29086888    -0.71500
O2916       O  0.90698941  0.15438674  0.28667864    -0.50200
C2917       C  0.91980200  0.17353246  0.30194561     0.74700
O2918       O  0.52443788  0.05705265  0.29271733    -0.66900
O2919       O  0.55346893  0.07924777  0.26137835    -0.54100
C2920       C  0.54876716  0.06229070  0.28239070     0.73100
Zr2921     Zr  0.97611154  0.07581994  0.28201599     2.77500
O2922       O  0.97439050  0.07235873  0.33633620    -0.97600
O2923       O  0.97582417  0.02411205  0.27639319    -0.78400
Zr2924     Zr  0.98480527  0.16258073  0.28934321     2.70100
O2925       O  0.97707530  0.17007325  0.34268495    -0.79700
O2926       O  0.00595022  0.20935667  0.29397597    -0.98800
Zr2927     Zr  0.52883585  0.11534256  0.23885579     2.21500
Zr2928     Zr  0.92788981  0.12948704  0.24380884     2.11100
O2929       O  0.95530182  0.12212231  0.28764729    -2.47400
O2930       O  0.50388432  0.11305676  0.28311106    -0.79500
O2931       O  0.94823403  0.08285631  0.23895955    -0.71700
O2932       O  0.51204216  0.16234873  0.24595736    -2.32600
O2933       O  0.50074008  0.07373155  0.23550695    -2.28800
O2934       O  0.95657211  0.17030230  0.24674730    -0.73400
H2935       H  0.94164140  0.12761046  0.18083459     0.78600
H2936       H  0.52672420  0.17591171  0.24770846     0.79700
H2937       H  0.94433422  0.12197057  0.30549840     0.81900
H2938       H  0.51125653  0.05636629  0.23339339     0.79500
H2939       H  0.01670489  0.21775297  0.20798141     0.42500
H2940       H  0.99383572  0.22204792  0.28240009     0.41500
H2941       H  0.97216247  0.15101169  0.34997908     0.41200
H2942       H  0.96860731  0.09153123  0.34354553     0.39100
H2943       H  0.98251909  0.01718410  0.29592877     0.42200
H2944       H  0.48538059  0.02158896  0.20097718     0.37000
H2945       H  0.46403700  0.10471687  0.13497950     0.43100
H2946       H  0.98897522  0.18710018  0.14089744     0.39600
H2947       H  0.95858071  0.05998590  0.34012759     0.44500
H2948       H  0.98557330  0.02258180  0.19476858     0.43200
H2949       H  0.96706718  0.20747352  0.15566778     0.43300
H2950       H  0.00313018  0.21537213  0.31511950     0.43700
O2951       O  0.51436243  0.30245699  0.17827737    -0.75200
O2952       O  0.54712126  0.33423306  0.18388408    -0.54100
C2953       C  0.53284466  0.31759923  0.16694991     0.77400
O2954       O  0.92777291  0.41998762  0.19361584    -0.59800
O2955       O  0.90001895  0.39566191  0.22489946    -0.52800
C2956       C  0.90392855  0.41379071  0.20455530     0.70600
O2957       O  0.52584020  0.41864089  0.18215940    -0.74300
O2958       O  0.55492558  0.38666134  0.20311632    -0.54900
C2959       C  0.55020961  0.40818755  0.18697046     0.76600
O2960       O  0.92112326  0.30827179  0.20091402    -0.59500
O2961       O  0.89388653  0.34417523  0.21053404    -0.52600
C2962       C  0.90223052  0.32491508  0.19216667     0.73200
Zr2963     Zr  0.96780929  0.31888201  0.18918012     2.54700
O2964       O  0.95622931  0.33534418  0.13922672    -0.80000
O2965       O  0.95951807  0.27342986  0.16305390    -0.93500
Zr2966     Zr  0.97723456  0.40457412  0.20064281     2.64700
O2967       O  0.97521357  0.41099194  0.14666483    -0.98400
O2968       O  0.97933940  0.45592839  0.20938575    -0.80500
O2969       O  0.49879767  0.36200471  0.19075138    -0.83800
O2970       O  0.94821039  0.36431814  0.19982704    -2.18500
O2971       O  0.93816601  0.30848546  0.30941864    -0.67200
O2972       O  0.90589634  0.33961415  0.29305720    -0.51800
C2973       C  0.91669307  0.32384492  0.31354327     0.71500
O2974       O  0.53951084  0.40436100  0.29567174    -0.60100
O2975       O  0.56308927  0.38113825  0.25849373    -0.52100
C2976       C  0.56189608  0.39694340  0.28206267     0.73400
O2977       O  0.94350399  0.41443319  0.30735042    -0.71500
O2978       O  0.90796569  0.39361068  0.28194539    -0.50200
C2979       C  0.91765298  0.41084511  0.30152130     0.74700
O2980       O  0.52565965  0.29811065  0.28231648    -0.66900
O2981       O  0.55535985  0.33198594  0.27240261    -0.54100
C2982       C  0.54440249  0.31500125  0.29088043     0.73100
Zr2983     Zr  0.97660925  0.30854265  0.27549588     2.77500
O2984       O  0.98801460  0.28067969  0.31941310    -0.97600
O2985       O  0.95801500  0.26511276  0.25282421    -0.78400
Zr2986     Zr  0.98817060  0.39451494  0.28785826     2.70100
O2987       O  0.99274764  0.38948901  0.34184396    -0.79700
O2988       O  0.99580858  0.44576631  0.29092792    -0.98800
Zr2989     Zr  0.52983173  0.35445669  0.23137122     2.21500
Zr2990     Zr  0.92706407  0.36075680  0.24811068     2.11100
O2991       O  0.95929790  0.35484655  0.28765972    -2.47400
O2992       O  0.50345409  0.35483627  0.27263882    -0.79500
O2993       O  0.94487399  0.31438811  0.23632910    -0.71700
O2994       O  0.50959672  0.40081572  0.23887266    -2.32600
O2995       O  0.50196885  0.31258041  0.22987284    -2.28800
O2996       O  0.95626073  0.40192570  0.24854445    -0.73400
H2997       H  0.93488727  0.36781522  0.18442110     0.78600
H2998       H  0.52292892  0.41585292  0.23913613     0.79700
H2999       H  0.95238111  0.35704244  0.30761982     0.81900
H3000       H  0.51215768  0.29492890  0.22833644     0.79500
H3001       H  0.49695876  0.46478490  0.20169429     0.42500
H3002       H  0.01468245  0.44842487  0.28394707     0.41500
H3003       H  0.00474849  0.40537453  0.34836209     0.41200
H3004       H  0.98529677  0.29374009  0.33683912     0.39100
H3005       H  0.95082233  0.25435927  0.26984591     0.42200
H3006       H  0.95362427  0.26054054  0.17899871     0.37000
H3007       H  0.46980688  0.35367203  0.13657396     0.43100
H3008       H  0.95579768  0.41481763  0.14210274     0.39600
H3009       H  0.97332560  0.26643973  0.32082952     0.44500
H3010       H  0.97748059  0.26577250  0.15692861     0.43200
H3011       H  0.98438134  0.42942209  0.14354619     0.43300
H3012       H  0.98424718  0.45363386  0.27478922     0.43700
C3013       C  0.83906281  0.43476820  0.32948055    -0.05300
C3014       C  0.85187676  0.44957291  0.30656149    -0.32800
C3015       C  0.87978823  0.44566101  0.30061785     0.36500
C3016       C  0.89559409  0.42628643  0.31729230    -0.05700
C3017       C  0.88296815  0.41215499  0.34078642    -0.32700
C3018       C  0.85520692  0.41646113  0.34705496     0.36400
H3019       H  0.84027051  0.46465070  0.29348791     0.16800
O3020       O  0.89134785  0.45999527  0.27751042    -0.60200
H3021       H  0.89420277  0.39613675  0.35301302     0.16800
O3022       O  0.84402512  0.40248023  0.37047168    -0.60300
H3023       H  0.83842282  0.38368902  0.36197696     0.43800
H3024       H  0.88591661  0.44931136  0.25903871     0.43700
C3025       C  0.64455303  0.41158783  0.31108420    -0.05300
C3026       C  0.62576719  0.39813014  0.32965866    -0.32800
C3027       C  0.59817553  0.39580970  0.32171162     0.36500
C3028       C  0.58898042  0.40547028  0.29387917    -0.05700
C3029       C  0.60797211  0.41759091  0.27440129    -0.32700
C3030       C  0.63531129  0.42146802  0.28318360     0.36400
H3031       H  0.63216098  0.39148778  0.35164599     0.16800
O3032       O  0.58044928  0.38349960  0.34106523    -0.60200
H3033       H  0.60141057  0.42453387  0.25247437     0.16800
O3034       O  0.65240401  0.43635274  0.26514586    -0.60300
H3035       H  0.65004824  0.45664769  0.27132650     0.43800
H3036       H  0.57633297  0.39855358  0.35632410     0.43700
C3037       C  0.87733339  0.06110155  0.29299647    -0.05300
C3038       C  0.85221882  0.07410043  0.28482762    -0.32800
C3039       C  0.82708695  0.06319318  0.29362134     0.36500
C3040       C  0.82637326  0.03885317  0.31110615    -0.05700
C3041       C  0.85132477  0.02511491  0.31819174    -0.32700
C3042       C  0.87648501  0.03597582  0.30944404     0.36400
H3043       H  0.85180927  0.09339315  0.27195255     0.16800
O3044       O  0.80363829  0.07786439  0.28708775    -0.60200
H3045       H  0.85149168  0.00630577  0.33181350     0.16800
O3046       O  0.89994929  0.02209321  0.31765197    -0.60300
H3047       H  0.90453604  0.02979035  0.33792558     0.43800
H3048       H  0.79878497  0.07194252  0.26628497     0.43700
C3049       C  0.62797466  0.02902632  0.30876316    -0.05300
C3050       C  0.60421193  0.01193070  0.31123083    -0.32800
C3051       C  0.57801351  0.02226854  0.30402394     0.36500
C3052       C  0.57484054  0.05032868  0.29456672    -0.05700
C3053       C  0.59865829  0.06720462  0.29199955    -0.32700
C3054       C  0.62478042  0.05663871  0.29809482     0.36400
H3055       H  0.60583893  0.99030587  0.31911222     0.16800
O3056       O  0.55593263  0.00467615  0.30595178    -0.60200
H3057       H  0.59719413  0.08892843  0.28441567     0.16800
O3058       O  0.64683056  0.07398100  0.29450442    -0.60300
H3059       H  0.65432049  0.06850980  0.27462212     0.43800
H3060       H  0.55440777  0.99506224  0.28600983     0.43700
C3061       C  0.82543447  0.44881985  0.17770429    -0.05300
C3062       C  0.84906092  0.46619396  0.17879215    -0.32800
C3063       C  0.87492352  0.45526163  0.18630506     0.36500
C3064       C  0.87784917  0.42645466  0.19328890    -0.05700
C3065       C  0.85416485  0.40926175  0.19295649    -0.32700
C3066       C  0.82837049  0.42007982  0.18518544     0.36400
H3067       H  0.84767777  0.48843156  0.17287911     0.16800
O3068       O  0.89705954  0.47294656  0.18683430    -0.60200
H3069       H  0.85566551  0.38692861  0.19842915     0.16800
O3070       O  0.80648799  0.40205498  0.18387681    -0.60300
H3071       H  0.80713431  0.39292386  0.16364786     0.43800
H3072       H  0.89598464  0.48364180  0.20619495     0.43700
C3073       C  0.62790818  0.44213294  0.15763362    -0.05300
C3074       C  0.60374773  0.45873731  0.15513776    -0.32800
C3075       C  0.57809459  0.44823718  0.16357390     0.36500
C3076       C  0.57598460  0.42053962  0.17468792    -0.05700
C3077       C  0.60033100  0.40410367  0.17688412    -0.32700
C3078       C  0.62578289  0.41460894  0.16870102     0.36400
H3079       H  0.60471963  0.48008492  0.14644464     0.16800
O3080       O  0.55558830  0.46553719  0.16168275    -0.60200
H3081       H  0.59990392  0.38256468  0.18509624     0.16800
O3082       O  0.64831527  0.39736349  0.17087176    -0.60300
H3083       H  0.64899116  0.38649621  0.15158751     0.43800
H3084       H  0.54862642  0.46274116  0.14091897     0.43700
C3085       C  0.87296634  0.07340271  0.18278578    -0.05300
C3086       C  0.85527875  0.06012136  0.20281239    -0.32800
C3087       C  0.82763195  0.05596277  0.19565022     0.36500
C3088       C  0.81689946  0.06590699  0.16847109    -0.05700
C3089       C  0.83438199  0.08032164  0.14911593    -0.32700
C3090       C  0.86208407  0.08405173  0.15603238     0.36400
H3091       H  0.86299377  0.05303062  0.22421627     0.16800
O3092       O  0.81145224  0.04126641  0.21481625    -0.60200
H3093       H  0.82681998  0.08716517  0.12756114     0.16800
O3094       O  0.87811560  0.09902206  0.13697935    -0.60300
H3095       H  0.88711420  0.08437248  0.12409461     0.43800
H3096       H  0.81617684  0.02088233  0.21143915     0.43700
C3097       C  0.62204776  0.04832284  0.14829277    -0.05300
C3098       C  0.61695430  0.04288390  0.17834379    -0.32800
C3099       C  0.59045273  0.04498542  0.18958265     0.36500
C3100       C  0.56837613  0.05288374  0.17074511    -0.05700
C3101       C  0.57316098  0.05583452  0.14018145    -0.32700
C3102       C  0.59971058  0.05387376  0.12896145     0.36400
H3103       H  0.63343730  0.03641462  0.19304652     0.16800
O3104       O  0.58623361  0.03999824  0.21936262    -0.60200
H3105       H  0.55665773  0.06116447  0.12513888     0.16800
O3106       O  0.60384096  0.05828214  0.09906482    -0.60300
H3107       H  0.59699666  0.04087911  0.08856285     0.43800
H3108       H  0.59602630  0.05544126  0.23037810     0.43700
C3109       C  0.81413371  0.34905500  0.07159347    -0.05300
C3110       C  0.82869591  0.36732100  0.09142680    -0.32800
C3111       C  0.82565736  0.39731281  0.09054452     0.36500
C3112       C  0.80808769  0.40966202  0.06912190    -0.05700
C3113       C  0.79311343  0.39098114  0.05026235    -0.32700
C3114       C  0.79474375  0.36138517  0.05259232     0.36400
H3115       H  0.84402022  0.35835553  0.10598703     0.16800
O3116       O  0.84082108  0.41412148  0.10976306    -0.60200
H3117       H  0.77963266  0.39924623  0.03341949     0.16800
O3118       O  0.78039220  0.34463775  0.03250877    -0.60300
H3119       H  0.76360684  0.33935270  0.04318587     0.43800
H3120       H  0.85679866  0.42000835  0.09800848     0.43700
C3121       C  0.83149486  0.14416121  0.05687199    -0.05300
C3122       C  0.84894887  0.11993839  0.05626286    -0.32800
C3123       C  0.83889338  0.09218445  0.06017329     0.36500
C3124       C  0.81096227  0.08820926  0.06454140    -0.05700
C3125       C  0.79410559  0.11260480  0.06777793    -0.32700
C3126       C  0.80401939  0.14019728  0.06385531     0.36400
H3127       H  0.87032569  0.12239435  0.05118581     0.16800
O3128       O  0.85607042  0.06920759  0.05717144    -0.60200
H3129       H  0.77257446  0.11021116  0.07209649     0.16800
O3130       O  0.78606078  0.16268135  0.06377811    -0.60300
H3131       H  0.78292234  0.16754938  0.08519425     0.43800
H3132       H  0.86192153  0.06478203  0.07787150     0.43700
C3133       C  0.80754607  0.41109380  0.43942234    -0.05300
C3134       C  0.80363462  0.38999150  0.41670781    -0.32800
C3135       C  0.80648929  0.36062561  0.42240196     0.36500
C3136       C  0.81392267  0.35160775  0.45118768    -0.05700
C3137       C  0.81897619  0.37299301  0.47345133    -0.32700
C3138       C  0.81551549  0.40211304  0.46791279     0.36400
H3139       H  0.79702921  0.39590418  0.39460879     0.16800
O3140       O  0.80134036  0.34108916  0.39982450    -0.60200
H3141       H  0.82533744  0.36726620  0.49575174     0.16800
O3142       O  0.81902494  0.42161068  0.49092624    -0.60300
H3143       H  0.83753139  0.42941909  0.48819162     0.43800
H3144       H  0.78128059  0.33876074  0.39955124     0.43700
C3145       C  0.79981741  0.08884326  0.42451712    -0.05300
C3146       C  0.78388852  0.11371823  0.41977126    -0.32800
C3147       C  0.79416634  0.14123439  0.42538499     0.36500
C3148       C  0.82084474  0.14456448  0.43622281    -0.05700
C3149       C  0.83724296  0.11966046  0.43907394    -0.32700
C3150       C  0.82712171  0.09223036  0.43282217     0.36400
H3151       H  0.76295412  0.11186935  0.41216441     0.16800
O3152       O  0.77760928  0.16447572  0.42125987    -0.60200
H3153       H  0.85808843  0.12129017  0.44700184     0.16800
O3154       O  0.84366410  0.06895323  0.43666914    -0.60300
H3155       H  0.85237068  0.06554272  0.41694302     0.43800
H3156       H  0.76707201  0.16661997  0.44002799     0.43700
C3157       C  0.90426891  0.33403694  0.40950978    -0.05300
C3158       C  0.88111826  0.33329286  0.39029524    -0.32800
C3159       C  0.88394214  0.33071496  0.35864918     0.36500
C3160       C  0.91013648  0.32876041  0.34602599    -0.05700
C3161       C  0.93276902  0.33232452  0.36535819    -0.32700
C3162       C  0.93009814  0.33468795  0.39639269     0.36400
H3163       H  0.86094254  0.33277295  0.39983304     0.16800
O3164       O  0.86121467  0.32895264  0.34069291    -0.60200
H3165       H  0.95319876  0.33262907  0.35641093     0.16800
O3166       O  0.95308676  0.33725398  0.41397726    -0.60300
H3167       H  0.96363688  0.31939732  0.41065281     0.43800
H3168       H  0.85691361  0.30834738  0.33921894     0.43700
C3169       C  0.89595986  0.32600983  0.15945757    -0.05300
C3170       C  0.89482288  0.35216086  0.14427781    -0.32800
C3171       C  0.89810314  0.35301874  0.11279931     0.36500
C3172       C  0.90184758  0.32749806  0.09612228    -0.05700
C3173       C  0.90063416  0.30157657  0.11134631    -0.32700
C3174       C  0.89733511  0.30067406  0.14228877     0.36400
H3175       H  0.89347044  0.37203985  0.15688500     0.16800
O3176       O  0.89875486  0.37875915  0.09887560    -0.60200
H3177       H  0.90252480  0.28150792  0.09924687     0.16800
O3178       O  0.89693530  0.27469497  0.15579311    -0.60300
H3179       H  0.87737259  0.27004030  0.15777759     0.43800
H3180       H  0.91705341  0.38663678  0.10345991     0.43700
C3181       C  0.91346041  0.17984865  0.33401094    -0.05300
C3182       C  0.90026388  0.15970269  0.35171548    -0.32800
C3183       C  0.89999489  0.16268635  0.38330618     0.36500
C3184       C  0.91438593  0.18518500  0.39771041    -0.05700
C3185       C  0.92706387  0.20527120  0.37964693    -0.32700
C3186       C  0.92545999  0.20364714  0.34853269     0.36400
H3187       H  0.89089942  0.14113835  0.34120649     0.16800
O3188       O  0.88647723  0.14301386  0.39972821    -0.60200
H3189       H  0.93814953  0.22297092  0.38959394     0.16800
O3190       O  0.93715085  0.22492348  0.33253518    -0.60300
H3191       H  0.92180392  0.23737448  0.32636928     0.43800
H3192       H  0.86693401  0.14627757  0.39516006     0.43700
C3193       C  0.91068924  0.17398412  0.09010496    -0.05300
C3194       C  0.88724356  0.17845242  0.10773716    -0.32800
C3195       C  0.88822218  0.17606528  0.13908851     0.36500
C3196       C  0.91296983  0.16948038  0.15320214    -0.05700
C3197       C  0.93550701  0.16208847  0.13519329    -0.32700
C3198       C  0.93454872  0.16434106  0.10402092     0.36400
H3199       H  0.86886053  0.18676062  0.09761428     0.16800
O3200       O  0.86558206  0.18240242  0.15576441    -0.60200
H3201       H  0.95458252  0.15589814  0.14536288     0.16800
O3202       O  0.95796134  0.16040224  0.08788284    -0.60300
H3203       H  0.95502987  0.14264861  0.07586380     0.43800
H3204       H  0.86514799  0.20349916  0.15764300     0.43700
C3205       C  0.65764021  0.38838140  0.40942152    -0.05300
C3206       C  0.62950361  0.38578412  0.41203252    -0.32800
C3207       C  0.61779371  0.35882563  0.41425983     0.36500
C3208       C  0.63450433  0.33398758  0.41580233    -0.05700
C3209       C  0.66223444  0.33643135  0.41012692    -0.32700
C3210       C  0.67371341  0.36327305  0.40629347     0.36400
H3211       H  0.61663781  0.40460466  0.41311029     0.16800
O3212       O  0.59006405  0.35715897  0.41708044    -0.60200
H3213       H  0.67534232  0.31779569  0.41047182     0.16800
O3214       O  0.70094898  0.36472389  0.40014331    -0.60300
H3215       H  0.70181734  0.36700720  0.37814725     0.43800
H3216       H  0.58271848  0.35914555  0.39648450     0.43700
C3217       C  0.63414092  0.12800204  0.42768221    -0.05300
C3218       C  0.64235394  0.12389411  0.39796293    -0.32800
C3219       C  0.64575331  0.09621081  0.38573528     0.36500
C3220       C  0.64147579  0.07184428  0.40334478    -0.05700
C3221       C  0.63083043  0.07584610  0.43193646    -0.32700
C3222       C  0.62686264  0.10334504  0.44406625     0.36400
H3223       H  0.64722049  0.14204088  0.38448418     0.16800
O3224       O  0.65527721  0.09303504  0.35706481    -0.60200
H3225       H  0.62799850  0.05766306  0.44612930     0.16800
O3226       O  0.61714026  0.10558246  0.47276144    -0.60300
H3227       H  0.59741263  0.10139501  0.47108774     0.43800
H3228       H  0.67481868  0.09817340  0.35820575     0.43700
C3229       C  0.65303464  0.40472398  0.04484160    -0.05300
C3230       C  0.65078892  0.38479536  0.06786846    -0.32800
C3231       C  0.64311420  0.35642336  0.06160212     0.36500
C3232       C  0.63727401  0.34767378  0.03193592    -0.05700
C3233       C  0.63960371  0.36773430  0.00899669    -0.32700
C3234       C  0.64771342  0.39581102  0.01520310     0.36400
H3235       H  0.65639484  0.39091777  0.09064035     0.16800
O3236       O  0.64171122  0.33748185  0.08448451    -0.60200
H3237       H  0.63538418  0.36146243  0.98592083     0.16800
O3238       O  0.65195251  0.41390372  0.99199136    -0.60300
H3239       H  0.63387243  0.42244601  0.98766651     0.43800
H3240       H  0.62323272  0.34004307  0.09288196     0.43700
C3241       C  0.66196671  0.08321636  0.04500748    -0.05300
C3242       C  0.65500601  0.09860911  0.07128239    -0.32800
C3243       C  0.65048381  0.12837050  0.07101844     0.36500
C3244       C  0.65419388  0.14363700  0.04452329    -0.05700
C3245       C  0.66319377  0.12839878  0.01896561    -0.32700
C3246       C  0.66612600  0.09864546  0.01870309     0.36400
H3247       H  0.65293526  0.08757598  0.09218152     0.16800
O3248       O  0.64204933  0.14232377  0.09660769    -0.60200
H3249       H  0.66496098  0.13928079  0.99789700     0.16800
O3250       O  0.67125727  0.08463495  0.99206029    -0.60300
H3251       H  0.68886049  0.09216665  0.98510929     0.43800
H3252       H  0.62525560  0.13250448  0.10282351     0.43700
C3253       C  0.54914112  0.31810444  0.32357837    -0.05300
C3254       C  0.52747329  0.32838668  0.34130490    -0.32800
C3255       C  0.52707906  0.32424142  0.37236365     0.36500
C3256       C  0.54864256  0.30982533  0.38621484    -0.05700
C3257       C  0.57161264  0.30230843  0.36889631    -0.32700
C3258       C  0.57198393  0.30630364  0.33779162     0.36400
H3259       H  0.50973112  0.33769662  0.33067258     0.16800
O3260       O  0.50463060  0.33226751  0.38843391    -0.60200
H3261       H  0.58859367  0.29125679  0.37902956     0.16800
O3262       O  0.59336638  0.29586943  0.32122894    -0.60300
H3263       H  0.60899226  0.30835333  0.32651688     0.43800
H3264       H  0.50729009  0.35280351  0.39322687     0.43700
C3265       C  0.53348778  0.31693576  0.06998696    -0.05300
C3266       C  0.55668604  0.32672032  0.08592594    -0.32800
C3267       C  0.55703581  0.32796799  0.11759483     0.36500
C3268       C  0.53443222  0.31812408  0.13361373    -0.05700
C3269       C  0.51115445  0.30971228  0.11729858    -0.32700
C3270       C  0.51005503  0.31052553  0.08620421     0.36400
H3271       H  0.57508090  0.33168287  0.07394629     0.16800
O3272       O  0.58014262  0.33674651  0.13243994    -0.60200
H3273       H  0.49346421  0.30199633  0.12860480     0.16800
O3274       O  0.48646552  0.30262934  0.07176135    -0.60300
H3275       H  0.47509054  0.32013988  0.07157549     0.43800
H3276       H  0.57804377  0.35768433  0.13495952     0.43700
C3277       C  0.57347070  0.14240389  0.39559119    -0.05300
C3278       C  0.56015973  0.11690350  0.38829129    -0.32800
C3279       C  0.55647687  0.10889840  0.35799841     0.36500
C3280       C  0.56604970  0.12673700  0.33522158    -0.05700
C3281       C  0.58380914  0.14863283  0.34277246    -0.32700
C3282       C  0.58700739  0.15710354  0.37268219     0.36400
H3283       H  0.54963566  0.10537904  0.40543645     0.16800
O3284       O  0.53944657  0.08668877  0.35080255    -0.60200
H3285       H  0.59103974  0.16259016  0.32553622     0.16800
O3286       O  0.59909337  0.18287379  0.37879711    -0.60300
H3287       H  0.61753150  0.18154140  0.36998301     0.43800
H3288       H  0.55001158  0.06921140  0.35533260     0.43700
C3289       C  0.57049231  0.15787662  0.08847777    -0.05300
C3290       C  0.55620774  0.13317324  0.09457835    -0.32800
C3291       C  0.55097985  0.12647701  0.12427882     0.36500
C3292       C  0.56167238  0.14351338  0.14797702    -0.05700
C3293       C  0.57990604  0.16523813  0.14175099    -0.32700
C3294       C  0.58410368  0.17278691  0.11206667     0.36400
H3295       H  0.54555790  0.12173593  0.07672919     0.16800
O3296       O  0.53176030  0.10626965  0.12992716    -0.60200
H3297       H  0.58773993  0.17885672  0.15971065     0.16800
O3298       O  0.59842958  0.19711255  0.10656936    -0.60300
H3299       H  0.61746560  0.19075250  0.10342616     0.43800
H3300       H  0.51400298  0.11530195  0.12512428     0.43700
O3301       O  0.64683644  0.19452975  0.54469610    -0.75200
O3302       O  0.61790702  0.15982610  0.52723819    -0.54100
C3303       C  0.63921821  0.16807623  0.54123324     0.78600
O3304       O  0.52673532  0.28265259  0.52978044    -0.59800
O3305       O  0.55787008  0.31540853  0.52082591    -0.52800
C3306       C  0.53979885  0.30501279  0.53785669     0.70600
O3307       O  0.55981860  0.19690246  0.56276980    -0.74300
O3308       O  0.56985658  0.15797942  0.53392672    -0.54900
C3309       C  0.56607316  0.17047160  0.55952184     0.76600
O3310       O  0.63719303  0.29530137  0.53656647    -0.59500
O3311       O  0.60883176  0.32023255  0.50585998    -0.52600
C3312       C  0.62803516  0.31879737  0.52513315     0.73200
Zr3313     Zr  0.62798747  0.24283930  0.53072180     2.54700
O3314       O  0.62407885  0.24728492  0.58496480    -0.80000
O3315       O  0.67703425  0.24910544  0.53519812    -0.93500
Zr3316     Zr  0.54494900  0.23433089  0.53029628     2.64700
O3317       O  0.52938115  0.24289570  0.58132998    -0.98400
O3318       O  0.50119970  0.21018565  0.52859586    -0.80500
O3319       O  0.58897135  0.21392819  0.53220665    -0.83800
O3320       O  0.58401190  0.26439842  0.52918771    -2.18500
O3321       O  0.63109055  0.28492700  0.92537980    -0.67200
O3322       O  0.60128234  0.31530034  0.94867166    -0.51800
C3323       C  0.62085221  0.31016795  0.93086986     0.71500
O3324       O  0.55198004  0.18493257  0.91687516    -0.60100
O3325       O  0.56824791  0.15196657  0.94903959    -0.52100
C3326       C  0.56194527  0.16026753  0.92242702     0.73400
O3327       O  0.52301896  0.27227236  0.92350474    -0.71500
O3328       O  0.55107817  0.30814836  0.93775550    -0.50200
C3329       C  0.53652925  0.29477844  0.91783931     0.74700
O3330       O  0.62885853  0.18183055  0.92655091    -0.66900
O3331       O  0.62037892  0.15632388  0.96769981    -0.54100
C3332       C  0.62741140  0.15774174  0.94057686     0.73100
Zr3333     Zr  0.62141144  0.23434770  0.93970335     2.77500
O3334       O  0.62167181  0.23568064  0.88518083    -0.97600
O3335       O  0.67086124  0.23096948  0.94090148    -0.78400
Zr3336     Zr  0.53804466  0.22724294  0.94438569     2.70100
O3337       O  0.51473213  0.22177000  0.89612602    -0.79700
O3338       O  0.49368355  0.20997478  0.95974400    -0.98800
Zr3339     Zr  0.58544869  0.18283697  0.99057976     2.21500
Zr3340     Zr  0.57997525  0.28688256  0.48171946     2.11100
O3341       O  0.57761648  0.25606287  0.93960171    -2.47400
O3342       O  0.58201749  0.20675680  0.94503506    -0.79500
O3343       O  0.61967620  0.26644518  0.98154976    -0.71700
O3344       O  0.54522093  0.20107919  0.48916100    -2.32600
O3345       O  0.62539822  0.21185938  0.98635235    -2.28800
O3346       O  0.53969572  0.25927489  0.48439577    -0.73400
H3347       H  0.58381829  0.27764963  0.54602203     0.78600
H3348       H  0.53184724  0.18615168  0.49020927     0.79700
H3349       H  0.57761103  0.26559247  0.92070614     0.81900
H3350       H  0.64207157  0.20084893  0.98624293     0.79500
H3351       H  0.50280606  0.19521105  0.54380784     0.42500
H3352       H  0.48191715  0.22714475  0.96013397     0.41500
H3353       H  0.49578265  0.22829726  0.89949804     0.41200
H3354       H  0.60954805  0.25176212  0.87988390     0.39100
H3355       H  0.67689535  0.24979086  0.94879508     0.42200
H3356       H  0.68483564  0.23479799  0.52104273     0.37000
H3357       H  0.62222267  0.26801931  0.58909062     0.43100
H3358       H  0.54153028  0.25787252  0.58968522     0.39600
H3359       H  0.64017480  0.24215247  0.88009200     0.44500
H3360       H  0.68173268  0.24191771  0.55529600     0.43200
H3361       H  0.51128535  0.25201363  0.57934543     0.43300
H3362       H  0.48685362  0.19824081  0.94261886     0.43700
O3363       O  0.91477678  0.21403406  0.56626721    -0.75200
O3364       O  0.90403323  0.17625147  0.53578903    -0.54100
C3365       C  0.91035833  0.18749071  0.56158671     0.78600
O3366       O  0.82075534  0.29892463  0.55994164    -0.59800
O3367       O  0.84516259  0.33357016  0.53670035    -0.52800
C3368       C  0.82731973  0.32547196  0.55513807     0.70600
O3369       O  0.82987131  0.19658358  0.55666733    -0.74300
O3370       O  0.85953623  0.16891774  0.02479479    -0.54900
C3371       C  0.83921748  0.17188161  0.54734807     0.76600
O3372       O  0.92461486  0.30531613  0.55506653    -0.59500
O3373       O  0.88916276  0.33367693  0.54460194    -0.52600
C3374       C  0.90663848  0.32353862  0.56338209     0.73200
Zr3375     Zr  0.91755349  0.25647244  0.53739519     2.54700
O3376       O  0.94466367  0.25410262  0.58338946    -0.80000
O3377       O  0.96305886  0.25387274  0.51647053    -0.93500
Zr3378     Zr  0.83560917  0.24848470  0.54420915     2.64700
O3379       O  0.83869973  0.24615254  0.59860333    -0.98400
O3380       O  0.78617762  0.24529665  0.54502727    -0.80500
O3381       O  0.87807803  0.23152056  0.53328497    -0.83800
O3382       O  0.87411463  0.27795588  0.54343520    -2.18500
O3383       O  0.91911161  0.31331657  0.94879449    -0.67200
O3384       O  0.88175665  0.33867249  0.95927991    -0.51800
C3385       C  0.90091302  0.33152383  0.94115592     0.71500
O3386       O  0.82390406  0.19772197  0.94175203    -0.60100
O3387       O  0.85504967  0.16993814  0.96588321    -0.52100
C3388       C  0.83472254  0.17305205  0.94825688     0.73400
O3389       O  0.81764775  0.30023594  0.94116353    -0.71500
O3390       O  0.82342491  0.31736369  0.98701797    -0.50200
C3391       C  0.81798586  0.32173251  0.95978393     0.74700
O3392       O  0.93254572  0.21555567  0.94063553    -0.66900
O3393       O  0.90375590  0.18041562  0.94914248    -0.54100
C3394       C  0.91909149  0.19399163  0.93121906     0.73100
Zr3395     Zr  0.91221608  0.26179094  0.94972166     2.77500
O3396       O  0.89987676  0.26258927  0.89666711    -0.97600
O3397       O  0.95696234  0.26972499  0.92833800    -0.78400
Zr3398     Zr  0.83073190  0.25007894  0.95510664     2.70100
O3399       O  0.82420059  0.24834984  0.90098440    -0.79700
O3400       O  0.78165196  0.24894631  0.96201565    -0.98800
Zr3401     Zr  0.88278868  0.20158853  0.99431164     2.21500
Zr3402     Zr  0.86952075  0.30870697  0.00130202     2.11100
O3403       O  0.86832413  0.28194732  0.95465564    -2.47400
O3404       O  0.87495329  0.22959885  0.95094988    -0.79500
O3405       O  0.91406235  0.28907310  0.99555427    -0.71700
O3406       O  0.83786475  0.22206506  0.99828560    -2.32600
O3407       O  0.92161515  0.23203802  0.99226997    -2.28800
O3408       O  0.83130955  0.27675294  0.00143967    -0.73400
H3409       H  0.87222850  0.28766926  0.56249638     0.78600
H3410       H  0.82404670  0.20754333  0.99874515     0.79700
H3411       H  0.86534318  0.29365340  0.93751358     0.81900
H3412       H  0.93829175  0.22101093  0.99178022     0.79500
H3413       H  0.78205234  0.22639857  0.53585731     0.42500
H3414       H  0.77721100  0.22844181  0.96303797     0.41500
H3415       H  0.83851900  0.23513554  0.89353575     0.41200
H3416       H  0.88000985  0.26604189  0.89589250     0.39100
H3417       H  0.95369425  0.28194101  0.91084533     0.42200
H3418       H  0.97487085  0.26113886  0.53287205     0.37000
H3419       H  0.95948704  0.24026821  0.57904536     0.43100
H3420       H  0.85477061  0.23392159  0.60246959     0.39600
H3421       H  0.90799179  0.28024782  0.88908376     0.44500
H3422       H  0.96363451  0.26889607  0.50126754     0.43200
H3423       H  0.84445667  0.26546278  0.60530833     0.43300
H3424       H  0.77886970  0.25646730  0.98265505     0.43700
O3425       O  0.67147723  0.05070563  0.64839534    -0.75200
O3426       O  0.64623882  0.02245481  0.61641466    -0.54100
C3427       C  0.64850457  0.04132247  0.63718558     0.78600
O3428       O  0.77437821  0.06010209  0.55482071    -0.59800
O3429       O  0.80659098  0.03857418  0.58342983    -0.52800
C3430       C  0.79749585  0.05989379  0.56822178     0.70600
O3431       O  0.69011264  0.04304205  0.53260345    -0.74300
O3432       O  0.66064876  0.03644765  0.56946424    -0.54900
C3433       C  0.67102918  0.05216746  0.54926474     0.76600
O3434       O  0.76825778  0.05769589  0.66234247    -0.59500
O3435       O  0.80227929  0.03171003  0.63981823    -0.52600
C3436       C  0.79376276  0.05104847  0.65782975     0.73200
Zr3437     Zr  0.72205305  0.04211229  0.64251719     2.54700
O3438       O  0.71900645  0.09376475  0.63895032    -0.80000
O3439       O  0.71611084  0.04466751  0.69667697    -0.93500
Zr3440     Zr  0.73396238  0.03128044  0.55262641     2.64700
O3441       O  0.72901398  0.07692863  0.52797264    -0.98400
O3442       O  0.75260005  0.01116694  0.50646021    -0.80500
O3443       O  0.70783145  0.03056653  0.59483165    -0.83800
O3444       O  0.75186862  0.03994725  0.60154745    -2.18500
O3445       O  0.77766208  0.45331124  0.66848198    -0.67200
O3446       O  0.80688898  0.48106304  0.64244076    -0.51800
C3447       C  0.80192020  0.46314724  0.66261188     0.71500
O3448       O  0.69378521  0.42575778  0.55068928    -0.60100
O3449       O  0.65779611  0.45305145  0.56588720    -0.52100
C3450       C  0.66846445  0.42993053  0.55491997     0.73400
O3451       O  0.78253022  0.45076119  0.54718444    -0.71500
O3452       O  0.80960717  0.46004031  0.58556083    -0.50200
C3453       C  0.80070345  0.44236218  0.56542405     0.74700
O3454       O  0.67931220  0.44700158  0.66045552    -0.66900
O3455       O  0.65100449  0.46947408  0.62751441    -0.54100
C3456       C  0.65512793  0.45350240  0.64997063     0.73100
Zr3457     Zr  0.72860286  0.46011290  0.65078755     2.77500
O3458       O  0.73168239  0.40881658  0.65742080    -0.97600
O3459       O  0.72414982  0.46915093  0.70442582    -0.78400
Zr3460     Zr  0.73570012  0.44896254  0.56187552     2.70100
O3461       O  0.74406671  0.40158564  0.58142520    -0.79700
O3462       O  0.73377242  0.42644198  0.51247824    -0.98800
Zr3463     Zr  0.67924912  0.49333238  0.59287646     2.21500
Zr3464     Zr  0.78078136  0.99945319  0.60682617     2.11100
O3465       O  0.75766965  0.45642008  0.60875557    -2.47400
O3466       O  0.70649083  0.45301890  0.60351493    -0.79500
O3467       O  0.75112105  0.00234834  0.64967706    -0.71700
O3468       O  0.70777155  0.98855468  0.55099583    -2.32600
O3469       O  0.69920853  0.49941674  0.64202883    -2.28800
O3470       O  0.76236483  0.99114090  0.55802765    -0.73400
H3471       H  0.76092949  0.05791597  0.60422151     0.78600
H3472       H  0.69757537  0.98595851  0.53258933     0.79700
H3473       H  0.77003097  0.44084307  0.61255200     0.81900
H3474       H  0.68579005  0.50069698  0.65766151     0.79500
H3475       H  0.76950274  0.02201622  0.50318300     0.42500
H3476       H  0.75136201  0.43114445  0.50324215     0.41500
H3477       H  0.72581884  0.39405674  0.58601125     0.41200
H3478       H  0.71787407  0.40074161  0.64341033     0.39100
H3479       H  0.72038275  0.45021127  0.71277727     0.42200
H3480       H  0.69647562  0.04133233  0.69989218     0.37000
H3481       H  0.73535915  0.09920250  0.62763109     0.43100
H3482       H  0.73296100  0.09176238  0.54349092     0.39600
H3483       H  0.74936587  0.40321651  0.64851262     0.44500
H3484       H  0.72517456  0.02727456  0.70411519     0.43200
H3485       H  0.74413359  0.07800340  0.51350435     0.43300
H3486       H  0.73428495  0.40563482  0.51567216     0.43700
O3487       O  0.68503712  0.05309970  0.88722860    -0.75200
O3488       O  0.65169955  0.02239666  0.89521708    -0.54100
C3489       C  0.66036231  0.04833869  0.89360083     0.78600
O3490       O  0.77740902  0.03301782  0.81127695    -0.59800
O3491       O  0.80691292  0.01798965  0.84759823    -0.52800
C3492       C  0.80171435  0.02933081  0.82251519     0.70600
O3493       O  0.67903607  0.03079350  0.81207063    -0.74300
O3494       O  0.65139308  0.00023715  0.83668041    -0.54900
C3495       C  0.65519926  0.01987255  0.81797639     0.76600
O3496       O  0.76240012  0.06293717  0.92259860    -0.59500
O3497       O  0.80047796  0.03895735  0.90811545    -0.52600
C3498       C  0.78798692  0.06175605  0.91799545     0.73200
Zr3499     Zr  0.72273789  0.03435940  0.91502379     2.54700
O3500       O  0.71377746  0.08242971  0.93434367    -0.80000
O3501       O  0.70490796  0.03179484  0.96551210    -0.93500
Zr3502     Zr  0.72909367  0.02262381  0.82545078     2.64700
O3503       O  0.72630229  0.07355808  0.81647579    -0.98400
O3504       O  0.73021433  0.01176745  0.77186214    -0.80500
O3505       O  0.70197885  0.02484314  0.86832083    -0.83800
O3506       O  0.75152621  0.03260484  0.87242043    -2.18500
O3507       O  0.77605451  0.44867368  0.94955715    -0.67200
O3508       O  0.80601214  0.45693390  0.91329937    -0.51800
C3509       C  0.79707839  0.44144257  0.93460977     0.71500
O3510       O  0.69158822  0.42131705  0.82258744    -0.60100
O3511       O  0.65758872  0.44781269  0.84451535    -0.52100
C3512       C  0.66601548  0.42731608  0.82784342     0.73400
O3513       O  0.78890794  0.43585355  0.82895284    -0.71500
O3514       O  0.81402307  0.46571944  0.85963997    -0.50200
C3515       C  0.81186857  0.44616376  0.83947282     0.74700
O3516       O  0.69523764  0.41844928  0.92050976    -0.66900
O3517       O  0.65864687  0.44081927  0.90024077    -0.54100
C3518       C  0.67070324  0.41851457  0.91088063     0.73100
Zr3519     Zr  0.73091943  0.45233940  0.92788255     2.77500
O3520       O  0.73872230  0.40317409  0.94301225    -0.97600
O3521       O  0.70994348  0.46224741  0.97597660    -0.78400
Zr3522     Zr  0.73798571  0.44117420  0.83727330     2.70100
O3523       O  0.74426542  0.39010049  0.84308551    -0.79700
O3524       O  0.74018812  0.43736515  0.78285223    -0.98800
Zr3525     Zr  0.67907885  0.48212473  0.87516833     2.21500
Zr3526     Zr  0.78151232  0.49437750  0.88492959     2.11100
O3527       O  0.75871659  0.44958596  0.88481485    -2.47400
O3528       O  0.71056308  0.44461733  0.88040896    -0.79500
O3529       O  0.75380916  0.49727280  0.92807131    -0.71700
O3530       O  0.70682335  0.47933101  0.83083438    -2.32600
O3531       O  0.69913650  0.49045393  0.92280411    -2.28800
O3532       O  0.75997878  0.48586585  0.83676222    -0.73400
H3533       H  0.76110446  0.05021595  0.86964158     0.78600
H3534       H  0.69592328  0.47592672  0.81305116     0.79700
H3535       H  0.77079037  0.43353138  0.88644236     0.81900
H3536       H  0.68508433  0.49083233  0.93778203     0.79500
H3537       H  0.71114030  0.00733997  0.76623952     0.42500
H3538       H  0.75275941  0.45270816  0.77714794     0.41500
H3539       H  0.74855196  0.38787891  0.86462257     0.41200
H3540       H  0.74771253  0.39391447  0.92555789     0.39100
H3541       H  0.72070424  0.47835234  0.98419818     0.42200
H3542       H  0.68574797  0.03820018  0.96365104     0.37000
H3543       H  0.71424093  0.09470021  0.91659047     0.43100
H3544       H  0.73532201  0.07590712  0.79694076     0.39600
H3545       H  0.75275286  0.40316299  0.95896284     0.44500
H3546       H  0.71419240  0.04725471  0.97689572     0.43200
H3547       H  0.73896200  0.08236442  0.83130594     0.43300
H3548       H  0.72208802  0.44386954  0.77573948     0.43700
O3549       O  0.51927388  0.06519500  0.67595921    -0.75200
O3550       O  0.55121245  0.08617803  0.70638001    -0.54100
C3551       C  0.54421883  0.06918867  0.68520037     0.78600
O3552       O  0.93955451  0.18673833  0.69448621    -0.59800
O3553       O  0.90673154  0.15573367  0.70379671    -0.52800
C3554       C  0.91913534  0.17208980  0.68566486     0.70600
O3555       O  0.51880178  0.15436804  0.67097563    -0.74300
O3556       O  0.55404276  0.14041335  0.70029534    -0.54900
C3557       C  0.54360518  0.14670471  0.67481519     0.76600
O3558       O  0.92264354  0.07425430  0.68585689    -0.59500
O3559       O  0.89733803  0.10460389  0.71543762    -0.52600
C3560       C  0.89968540  0.08487738  0.69556779     0.73200
Zr3561     Zr  0.97306654  0.08076432  0.69491060     2.54700
O3562       O  0.96686695  0.07927869  0.64072666    -0.80000
O3563       O  0.97009344  0.02909114  0.69716466    -0.93500
Zr3564     Zr  0.98491073  0.16832363  0.70453045     2.64700
O3565       O  0.98887838  0.20006967  0.66182971    -0.98400
O3566       O  0.00473703  0.21330839  0.72187996    -0.80500
O3567       O  0.49770701  0.12240941  0.70186776    -0.83800
O3568       O  0.95533882  0.12776306  0.70010464    -2.18500
O3569       O  0.92746146  0.06255528  0.78783258    -0.67200
O3570       O  0.90087379  0.09843719  0.77013968    -0.51800
C3571       C  0.90395137  0.07435075  0.78237150     0.71500
O3572       O  0.52308726  0.14095614  0.81612589    -0.60100
O3573       O  0.55619940  0.13153167  0.78229342    -0.52100
C3574       C  0.54745299  0.13359832  0.80932081     0.73400
O3575       O  0.94426468  0.18446660  0.79125295    -0.71500
O3576       O  0.90900791  0.15575549  0.78751157    -0.50200
C3577       C  0.92299659  0.17402545  0.80266405     0.74700
O3578       O  0.52490210  0.05865805  0.79212668    -0.66900
O3579       O  0.55405367  0.08258364  0.76229131    -0.54100
C3580       C  0.54928752  0.06472570  0.78246235     0.73100
Zr3581     Zr  0.97671392  0.07532424  0.78311994     2.77500
O3582       O  0.97575108  0.07640283  0.83765423    -0.97600
O3583       O  0.97405565  0.02349622  0.78180386    -0.78400
Zr3584     Zr  0.98762325  0.16000875  0.79100391     2.70100
O3585       O  0.98160294  0.16933035  0.84441525    -0.79700
O3586       O  0.01063718  0.20575418  0.79496240    -0.98800
Zr3587     Zr  0.52821712  0.11740695  0.73904874     2.21500
Zr3588     Zr  0.92937078  0.13000473  0.74498582     2.11100
O3589       O  0.95601701  0.12143619  0.78962322    -2.47400
O3590       O  0.50321843  0.11464319  0.78324777    -0.79500
O3591       O  0.94864882  0.08286151  0.74040921    -0.71700
O3592       O  0.51094553  0.16425271  0.74617169    -2.32600
O3593       O  0.50075944  0.07532237  0.73544858    -2.28800
O3594       O  0.95908489  0.16993902  0.74910351    -0.73400
H3595       H  0.94423664  0.12814206  0.68217187     0.78600
H3596       H  0.52550415  0.17794602  0.74794875     0.79700
H3597       H  0.94502599  0.12146890  0.80747065     0.81900
H3598       H  0.51149694  0.05811242  0.73327302     0.79500
H3599       H  0.02171024  0.21508068  0.71026696     0.42500
H3600       H  0.99644677  0.21904812  0.80252597     0.41500
H3601       H  0.97363431  0.15160471  0.85205812     0.41200
H3602       H  0.98354591  0.09513823  0.84350295     0.39100
H3603       H  0.98366095  0.01753113  0.76328405     0.42200
H3604       H  0.48007297  0.02306462  0.70565124     0.37000
H3605       H  0.45211540  0.09558785  0.63473716     0.43100
H3606       H  0.99208989  0.18809407  0.64367605     0.39600
H3607       H  0.95619494  0.07813072  0.84263958     0.44500
H3608       H  0.95384115  0.02560823  0.70950388     0.43200
H3609       H  0.97083637  0.20897678  0.65852862     0.43300
H3610       H  0.02346406  0.20375003  0.81202627     0.43700
O3611       O  0.51180101  0.29945904  0.67579546    -0.75200
O3612       O  0.54560913  0.32996041  0.68380932    -0.54100
C3613       C  0.53131403  0.31418614  0.66591480     0.77400
O3614       O  0.92981489  0.42342644  0.69166794    -0.59800
O3615       O  0.90193542  0.40004962  0.72355808    -0.52800
C3616       C  0.90601349  0.41781458  0.70295943     0.70600
O3617       O  0.52702571  0.41577357  0.68548068    -0.74300
O3618       O  0.55563477  0.38197149  0.70404473    -0.54900
C3619       C  0.55139378  0.40492061  0.68987008     0.76600
O3620       O  0.92047769  0.31046536  0.70210278    -0.59500
O3621       O  0.89414983  0.34741409  0.71000057    -0.52600
C3622       C  0.90194887  0.32711433  0.69259427     0.73200
Zr3623     Zr  0.96723566  0.32056978  0.69053137     2.54700
O3624       O  0.95589317  0.33633086  0.64029154    -0.80000
O3625       O  0.95730098  0.27491159  0.66562087    -0.93500
Zr3626     Zr  0.97854476  0.40643744  0.69904809     2.64700
O3627       O  0.97550020  0.41210736  0.64503549    -0.98400
O3628       O  0.98131401  0.45769623  0.70803961    -0.80500
O3629       O  0.49492500  0.35884785  0.69719315    -0.83800
O3630       O  0.94858553  0.36672092  0.69914671    -2.18500
O3631       O  0.93848017  0.31731845  0.81293466    -0.67200
O3632       O  0.90525133  0.34503058  0.79258434    -0.51800
C3633       C  0.91603941  0.33149256  0.81479683     0.71500
O3634       O  0.53929622  0.39917138  0.79587883    -0.60100
O3635       O  0.56259534  0.37485250  0.75922382    -0.52100
C3636       C  0.56167068  0.39078949  0.78273625     0.73400
O3637       O  0.94333202  0.41881362  0.80506925    -0.71500
O3638       O  0.90791254  0.39878177  0.77870799    -0.50200
C3639       C  0.91749215  0.41582431  0.79845038     0.74700
O3640       O  0.52346639  0.29135251  0.78025571    -0.66900
O3641       O  0.55156005  0.32755334  0.77409090    -0.54100
C3642       C  0.54213196  0.30765593  0.79024801     0.73100
Zr3643     Zr  0.97567329  0.31282618  0.77733428     2.77500
O3644       O  0.98421498  0.28127238  0.81930265    -0.97600
O3645       O  0.95534335  0.27010462  0.75505405    -0.78400
Zr3646     Zr  0.98859625  0.39885620  0.78633457     2.70100
O3647       O  0.99478393  0.39584406  0.84033349    -0.79700
O3648       O  0.99547547  0.45025980  0.78725096    -0.98800
Zr3649     Zr  0.52852582  0.35025649  0.73135224     2.21500
Zr3650     Zr  0.92737673  0.36454054  0.74733870     2.11100
O3651       O  0.95916315  0.35988881  0.78740103    -2.47400
O3652       O  0.50637551  0.34951950  0.77827029    -0.79500
O3653       O  0.94424402  0.31756062  0.73770127    -0.71700
O3654       O  0.50928998  0.39692519  0.74015574    -2.32600
O3655       O  0.50015973  0.30876228  0.72940454    -2.28800
O3656       O  0.95706012  0.40524795  0.74665961    -0.73400
H3657       H  0.93527242  0.37004180  0.68367332     0.78600
H3658       H  0.52289086  0.41168602  0.74081495     0.79700
H3659       H  0.95208800  0.36369442  0.80705877     0.81900
H3660       H  0.51011294  0.29109205  0.72663448     0.79500
H3661       H  0.48791755  0.46351345  0.69263259     0.42500
H3662       H  0.01313613  0.45307469  0.77724652     0.41500
H3663       H  0.99515036  0.41596054  0.84750269     0.41200
H3664       H  0.97503828  0.28974719  0.83704683     0.39100
H3665       H  0.97078896  0.25661427  0.75267138     0.42200
H3666       H  0.94836083  0.26358142  0.68115798     0.37000
H3667       H  0.46961364  0.34928618  0.63515600     0.43100
H3668       H  0.95637814  0.40747446  0.63979811     0.39600
H3669       H  0.97346356  0.26407020  0.81423696     0.44500
H3670       H  0.97500055  0.26518788  0.66252150     0.43200
H3671       H  0.97682087  0.43292427  0.64222699     0.43300
H3672       H  0.98173960  0.45767448  0.77300884     0.43700
C3673       C  0.83869922  0.43661343  0.82789934    -0.05300
C3674       C  0.84965834  0.45058868  0.80336740    -0.32800
C3675       C  0.87743163  0.44781750  0.79625010     0.36500
C3676       C  0.89512703  0.43103834  0.81391364    -0.05700
C3677       C  0.88430360  0.41800487  0.83911888    -0.32700
C3678       C  0.85655191  0.42075906  0.84616373     0.36400
H3679       H  0.83673022  0.46416444  0.78991791     0.16800
O3680       O  0.88701262  0.46041277  0.77097912    -0.60200
H3681       H  0.89694194  0.40377244  0.85212580     0.16800
O3682       O  0.84703848  0.40766472  0.87102841    -0.60300
H3683       H  0.84401248  0.38755731  0.86458937     0.43800
H3684       H  0.87805038  0.45025429  0.75390695     0.43700
C3685       C  0.64296750  0.41075012  0.81488998    -0.05300
C3686       C  0.62231337  0.40294744  0.83485839    -0.32800
C3687       C  0.59560146  0.39748821  0.82513427     0.36500
C3688       C  0.58894406  0.39913698  0.79461332    -0.05700
C3689       C  0.60987497  0.40547582  0.77427481    -0.32700
C3690       C  0.63649235  0.41175743  0.78423280     0.36400
H3691       H  0.62652769  0.40316299  0.85857679     0.16800
O3692       O  0.57639080  0.39008478  0.84561521    -0.60200
H3693       H  0.60533659  0.40642705  0.75052723     0.16800
O3694       O  0.65545348  0.42053190  0.76408964    -0.60300
H3695       H  0.65270318  0.44142081  0.76268127     0.43800
H3696       H  0.56815452  0.40835255  0.85262168     0.43700
C3697       C  0.87776263  0.06030306  0.78981592    -0.05300
C3698       C  0.85291643  0.07423297  0.78240979    -0.32800
C3699       C  0.82767424  0.06352560  0.79086666     0.36500
C3700       C  0.82662090  0.03828494  0.80683793    -0.05700
C3701       C  0.85119377  0.02338075  0.81257120    -0.32700
C3702       C  0.87650471  0.03415791  0.80437834     0.36400
H3703       H  0.85283743  0.09426121  0.77080807     0.16800
O3704       O  0.80457063  0.07932318  0.78590182    -0.60200
H3705       H  0.85096789  0.00391572  0.82511639     0.16800
O3706       O  0.89972286  0.01931953  0.81151981    -0.60300
H3707       H  0.90393921  0.02487215  0.83260734     0.43800
H3708       H  0.79768726  0.07272823  0.76601050     0.43700
C3709       C  0.62900554  0.03075257  0.80498563    -0.05300
C3710       C  0.60580613  0.01269072  0.80424805    -0.32800
C3711       C  0.57931449  0.02324298  0.79878904     0.36500
C3712       C  0.57528086  0.05241672  0.79435950    -0.05700
C3713       C  0.59852249  0.07031170  0.79500208    -0.32700
C3714       C  0.62495963  0.05972872  0.79952612     0.36400
H3715       H  0.60816811  0.99014409  0.80842245     0.16800
O3716       O  0.55776654  0.00480550  0.79736175    -0.60200
H3717       H  0.59633370  0.09288687  0.79102171     0.16800
O3718       O  0.64648488  0.07820231  0.79984544    -0.60300
H3719       H  0.65046665  0.08154098  0.77846921     0.43800
H3720       H  0.55567126  0.99957786  0.77582513     0.43700
C3721       C  0.82738232  0.45277587  0.67753390    -0.05300
C3722       C  0.85120951  0.46987381  0.67660212    -0.32800
C3723       C  0.87717313  0.45905506  0.68383978     0.36500
C3724       C  0.87998728  0.43054114  0.69193624    -0.05700
C3725       C  0.85617366  0.41366082  0.69327237    -0.32700
C3726       C  0.83027290  0.42446463  0.68635004     0.36400
H3727       H  0.84989874  0.49171126  0.66931529     0.16800
O3728       O  0.89945484  0.47650471  0.68300849    -0.60200
H3729       H  0.85758260  0.39152950  0.69954476     0.16800
O3730       O  0.80818842  0.40671192  0.68684211    -0.60300
H3731       H  0.80984447  0.39419022  0.66875653     0.43800
H3732       H  0.89850614  0.48847419  0.70156034     0.43700
C3733       C  0.62935172  0.44224537  0.66335716    -0.05300
C3734       C  0.60468807  0.45799487  0.66069426    -0.32800
C3735       C  0.57917814  0.44656205  0.66863895     0.36500
C3736       C  0.57755282  0.41869258  0.67957128    -0.05700
C3737       C  0.60250965  0.40342412  0.68289878    -0.32700
C3738       C  0.62785370  0.41483164  0.67505639     0.36400
H3739       H  0.60508709  0.47934598  0.65192749     0.16800
O3740       O  0.55618828  0.46304894  0.66603978    -0.60200
H3741       H  0.60263581  0.38201297  0.69146526     0.16800
O3742       O  0.65089470  0.39845221  0.67798615    -0.60300
H3743       H  0.65222944  0.38730642  0.65892023     0.43800
H3744       H  0.55094844  0.46165562  0.64456080     0.43700
C3745       C  0.87310609  0.07457970  0.68427260    -0.05300
C3746       C  0.85784668  0.05661248  0.70242391    -0.32800
C3747       C  0.82997941  0.05195261  0.69676722     0.36500
C3748       C  0.81666037  0.06571600  0.67296387    -0.05700
C3749       C  0.83174619  0.08464347  0.65567927    -0.32700
C3750       C  0.85958842  0.08924458  0.66130409     0.36400
H3751       H  0.86750446  0.04647222  0.72136841     0.16800
O3752       O  0.81588641  0.03347283  0.71423486    -0.60200
H3753       H  0.82226360  0.09459268  0.63651949     0.16800
O3754       O  0.87331573  0.10870630  0.64473505    -0.60300
H3755       H  0.87812214  0.09848075  0.62583527     0.43800
H3756       H  0.82284873  0.01419882  0.70887390     0.43700
C3757       C  0.62202382  0.05029036  0.64959291    -0.05300
C3758       C  0.61635502  0.04398503  0.67932253    -0.32800
C3759       C  0.58973352  0.04623815  0.69018560     0.36500
C3760       C  0.56809591  0.05511665  0.67125425    -0.05700
C3761       C  0.57348697  0.05941316  0.64101479    -0.32700
C3762       C  0.60014130  0.05713537  0.63016184     0.36400
H3763       H  0.63247750  0.03659593  0.69401682     0.16800
O3764       O  0.58495218  0.04032441  0.71966360    -0.60200
H3765       H  0.55736859  0.06595511  0.62601951     0.16800
O3766       O  0.60476387  0.06232270  0.60053725    -0.60300
H3767       H  0.59979124  0.04444617  0.58963004     0.43800
H3768       H  0.59514091  0.05493939  0.73149623     0.43700
C3769       C  0.81284406  0.35028643  0.56825626    -0.05300
C3770       C  0.82751453  0.36844918  0.58806450    -0.32800
C3771       C  0.82425628  0.39838369  0.58759773     0.36500
C3772       C  0.80653049  0.41088046  0.56652359    -0.05700
C3773       C  0.79146294  0.39238567  0.54755015    -0.32700
C3774       C  0.79337301  0.36274027  0.54935876     0.36400
H3775       H  0.84318950  0.35949019  0.60220745     0.16800
O3776       O  0.83987116  0.41508692  0.60639075    -0.60200
H3777       H  0.77801628  0.40085224  0.53082258     0.16800
O3778       O  0.77902739  0.34618240  0.52910409    -0.60300
H3779       H  0.76343885  0.33876406  0.54048467     0.43800
H3780       H  0.82848206  0.41834861  0.62430892     0.43700
C3781       C  0.83024729  0.14446428  0.56051637    -0.05300
C3782       C  0.84789146  0.12041628  0.55875097    -0.32800
C3783       C  0.83843354  0.09257876  0.56329473     0.36500
C3784       C  0.81089040  0.08829717  0.56941142    -0.05700
C3785       C  0.79400269  0.11248412  0.57417732    -0.32700
C3786       C  0.80341712  0.14026370  0.56987623     0.36400
H3787       H  0.86888184  0.12304254  0.55213539     0.16800
O3788       O  0.85563172  0.06978737  0.55902984    -0.60200
H3789       H  0.77278100  0.10973966  0.57985278     0.16800
O3790       O  0.78547087  0.16269117  0.57195745    -0.60300
H3791       H  0.78420591  0.16728541  0.59368592     0.43800
H3792       H  0.86438499  0.06684747  0.57882789     0.43700
C3793       C  0.80807453  0.41207833  0.93949250    -0.05300
C3794       C  0.80625489  0.39114756  0.91631715    -0.32800
C3795       C  0.80934934  0.36173094  0.92198055     0.36500
C3796       C  0.81425093  0.35251418  0.95137208    -0.05700
C3797       C  0.81700900  0.37377433  0.97420987    -0.32700
C3798       C  0.81372334  0.40289754  0.96857553     0.36400
H3799       H  0.80077065  0.39734854  0.89388531     0.16800
O3800       O  0.80713085  0.34234443  0.89869675    -0.60200
H3801       H  0.82152582  0.36794037  0.99700485     0.16800
O3802       O  0.81489411  0.42223449  0.99200984    -0.60300
H3803       H  0.83451791  0.42636916  0.99494416     0.43800
H3804       H  0.78729505  0.33991187  0.89531788     0.43700
C3805       C  0.80184925  0.08997270  0.92267418    -0.05300
C3806       C  0.78584464  0.11512540  0.92026078    -0.32800
C3807       C  0.79630887  0.14235152  0.92695428     0.36500
C3808       C  0.82350070  0.14533282  0.93621790    -0.05700
C3809       C  0.83987037  0.12027370  0.93737938    -0.32700
C3810       C  0.82946207  0.09304063  0.93015822     0.36400
H3811       H  0.76463157  0.11379037  0.91359143     0.16800
O3812       O  0.77944240  0.16568739  0.92537409    -0.60200
H3813       H  0.86094099  0.12160606  0.94457699     0.16800
O3814       O  0.84614784  0.06962502  0.93200755    -0.60300
H3815       H  0.85519980  0.06807832  0.91226088     0.43800
H3816       H  0.76721865  0.16447124  0.94286693     0.43700
C3817       C  0.90060473  0.34093476  0.90948133    -0.05300
C3818       C  0.87869134  0.33355387  0.89008093    -0.32800
C3819       C  0.88211989  0.33207178  0.85858098     0.36500
C3820       C  0.90769095  0.33809305  0.84632947    -0.05700
C3821       C  0.92823911  0.34877499  0.86574324    -0.32700
C3822       C  0.92483555  0.35028232  0.89676649     0.36400
H3823       H  0.85968230  0.32650154  0.89933796     0.16800
O3824       O  0.86109687  0.32302664  0.84043426    -0.60200
H3825       H  0.94787763  0.35459822  0.85699977     0.16800
O3826       O  0.94579971  0.36001261  0.91465002    -0.60300
H3827       H  0.95609512  0.34276014  0.92048954     0.43800
H3828       H  0.86134201  0.30194250  0.84152206     0.43700
C3829       C  0.89572010  0.32693632  0.65980499    -0.05300
C3830       C  0.89447343  0.35251657  0.64363972    -0.32800
C3831       C  0.89771568  0.35231941  0.61212019     0.36500
C3832       C  0.90184950  0.32631704  0.59639771    -0.05700
C3833       C  0.90073767  0.30091040  0.61256796    -0.32700
C3834       C  0.89724219  0.30103327  0.64355124     0.36400
H3835       H  0.89303665  0.37279638  0.65553596     0.16800
O3836       O  0.89807543  0.37756966  0.59726146    -0.60200
H3837       H  0.90268166  0.28048419  0.60110694     0.16800
O3838       O  0.89664634  0.27552153  0.65797194    -0.60300
H3839       H  0.87705371  0.27135320  0.66061979     0.43800
H3840       H  0.91671873  0.38513399  0.60040740     0.43700
C3841       C  0.91742939  0.18063086  0.83476984    -0.05300
C3842       C  0.90576555  0.16014206  0.85324636    -0.32800
C3843       C  0.90618018  0.16365493  0.88476734     0.36500
C3844       C  0.91929334  0.18744047  0.89828912    -0.05700
C3845       C  0.93051467  0.20788160  0.87946153    -0.32700
C3846       C  0.92875101  0.20520841  0.84836712     0.36400
H3847       H  0.89722132  0.14084951  0.84337425     0.16800
O3848       O  0.89468826  0.14323096  0.90203252    -0.60200
H3849       H  0.94042446  0.22665645  0.88875185     0.16800
O3850       O  0.93919280  0.22646968  0.83138134    -0.60300
H3851       H  0.92415139  0.24048847  0.82923896     0.43800
H3852       H  0.87503535  0.14360103  0.89681165     0.43700
C3853       C  0.91005911  0.17101295  0.58933777    -0.05300
C3854       C  0.88699338  0.17467943  0.60765302    -0.32800
C3855       C  0.88900504  0.17385508  0.63905325     0.36500
C3856       C  0.91442060  0.16916579  0.65269057    -0.05700
C3857       C  0.93679331  0.16236584  0.63420004    -0.32700
C3858       C  0.93480773  0.16329290  0.60289709     0.36400
H3859       H  0.86794491  0.18158565  0.59792852     0.16800
O3860       O  0.86649814  0.17980635  0.65605184    -0.60200
H3861       H  0.95632606  0.15733419  0.64410563     0.16800
O3862       O  0.95785392  0.15977606  0.58605500    -0.60300
H3863       H  0.95799944  0.13935198  0.57987009     0.43800
H3864       H  0.86678074  0.20074544  0.65956773     0.43700
C3865       C  0.65706399  0.39036288  0.91119821    -0.05300
C3866       C  0.62901928  0.38851558  0.91500973    -0.32800
C3867       C  0.61663934  0.36198747  0.91779576     0.36500
C3868       C  0.63246426  0.33646840  0.91821149    -0.05700
C3869       C  0.66024740  0.33815703  0.91230158    -0.32700
C3870       C  0.67250848  0.36470521  0.90840582     0.36400
H3871       H  0.61668761  0.40770717  0.91643748     0.16800
O3872       O  0.58899640  0.36143259  0.92152003    -0.60200
H3873       H  0.67280137  0.31909970  0.91231345     0.16800
O3874       O  0.69989637  0.36530043  0.90275877    -0.60300
H3875       H  0.70137649  0.36323429  0.88068275     0.43800
H3876       H  0.58169623  0.35550094  0.90162781     0.43700
C3877       C  0.63218905  0.12915629  0.92564138    -0.05300
C3878       C  0.64397478  0.12672049  0.89731315    -0.32800
C3879       C  0.65006313  0.09977059  0.88462889     0.36500
C3880       C  0.64414401  0.07441477  0.90007631    -0.05700
C3881       C  0.63027719  0.07667079  0.92705339    -0.32700
C3882       C  0.62411451  0.10345687  0.93979049     0.36400
H3883       H  0.64965398  0.14566327  0.88549489     0.16800
O3884       O  0.66333983  0.09836721  0.85771972    -0.60200
H3885       H  0.62615069  0.05769161  0.93963024     0.16800
O3886       O  0.61122525  0.10396170  0.96694639    -0.60300
H3887       H  0.59169817  0.10087055  0.96217009     0.43800
H3888       H  0.68220252  0.10477662  0.86208906     0.43700
C3889       C  0.65210603  0.40449474  0.54849785    -0.05300
C3890       C  0.65102843  0.38376532  0.57083669    -0.32800
C3891       C  0.64479193  0.35521846  0.56362355     0.36500
C3892       C  0.63926895  0.34711180  0.53372026    -0.05700
C3893       C  0.64036433  0.36802660  0.51147352    -0.32700
C3894       C  0.64697382  0.39629849  0.51861853     0.36400
H3895       H  0.65664662  0.38942954  0.59372939     0.16800
O3896       O  0.64457774  0.33546856  0.58580341    -0.60200
H3897       H  0.63634072  0.36229605  0.48820239     0.16800
O3898       O  0.65036791  0.41526298  0.49599069    -0.60300
H3899       H  0.63377041  0.42738546  0.49627687     0.43800
H3900       H  0.62580159  0.33598390  0.59372989     0.43700
C3901       C  0.66407009  0.08312663  0.54799798    -0.05300
C3902       C  0.65622889  0.09792228  0.57427353    -0.32800
C3903       C  0.65179615  0.12764938  0.57456908     0.36500
C3904       C  0.65665766  0.14348000  0.54871772    -0.05700
C3905       C  0.66710254  0.12896237  0.52345212    -0.32700
C3906       C  0.66985572  0.09920500  0.52249257     0.36400
H3907       H  0.65334392  0.08644992  0.59474536     0.16800
O3908       O  0.64250041  0.14105467  0.60009626    -0.60200
H3909       H  0.67000603  0.14040751  0.50288866     0.16800
O3910       O  0.67633935  0.08588760  0.49583570    -0.60300
H3911       H  0.69369683  0.09446594  0.48950929     0.43800
H3912       H  0.62620747  0.13030977  0.60623240     0.43700
C3913       C  0.54777825  0.30706565  0.82292340    -0.05300
C3914       C  0.54013705  0.33056194  0.84139432    -0.32800
C3915       C  0.53647439  0.32760486  0.87263691     0.36500
C3916       C  0.54039147  0.30076993  0.88550959    -0.05700
C3917       C  0.54912635  0.27783538  0.86703850    -0.32700
C3918       C  0.55291923  0.28083175  0.83631846     0.36400
H3919       H  0.53494799  0.35064119  0.83128604     0.16800
O3920       O  0.52635447  0.34988803  0.88973304    -0.60200
H3921       H  0.55263046  0.25703359  0.87640199     0.16800
O3922       O  0.55986091  0.25735243  0.81916049    -0.60300
H3923       H  0.57957482  0.25945111  0.81519702     0.43800
H3924       H  0.53742744  0.36680284  0.88508231     0.43700
C3925       C  0.53680812  0.31539505  0.56926393    -0.05300
C3926       C  0.55998739  0.32242124  0.58676561    -0.32800
C3927       C  0.55889080  0.32274989  0.61839962     0.36500
C3928       C  0.53471630  0.31476462  0.63276099    -0.05700
C3929       C  0.51163242  0.30884860  0.61488830    -0.32700
C3930       C  0.51213048  0.31075381  0.58384980     0.36400
H3931       H  0.57931180  0.32587770  0.57598420     0.16800
O3932       O  0.58196232  0.32866884  0.63481802    -0.60200
H3933       H  0.49286271  0.30231617  0.62493814     0.16800
O3934       O  0.48868077  0.30565145  0.56778658    -0.60300
H3935       H  0.48219129  0.32468309  0.56152170     0.43800
H3936       H  0.58250580  0.34975419  0.63668766     0.43700
C3937       C  0.56977629  0.14372561  0.89536287    -0.05300
C3938       C  0.55665899  0.11825258  0.88777671    -0.32800
C3939       C  0.55418299  0.10995336  0.85751141     0.36500
C3940       C  0.56489064  0.12744570  0.83506152    -0.05700
C3941       C  0.58303200  0.14877117  0.84317711    -0.32700
C3942       C  0.58467555  0.15786236  0.87304295     0.36400
H3943       H  0.54518287  0.10712903  0.90447613     0.16800
O3944       O  0.53676511  0.08824447  0.84981169    -0.60200
H3945       H  0.59137231  0.16225074  0.82612251     0.16800
O3946       O  0.59664046  0.18362263  0.87925549    -0.60300
H3947       H  0.61529564  0.18219174  0.87097603     0.43800
H3948       H  0.54765703  0.07056026  0.85207714     0.43700
C3949       C  0.57030189  0.15545963  0.58759200    -0.05300
C3950       C  0.55358709  0.13254934  0.59393446    -0.32800
C3951       C  0.54734953  0.12698692  0.62366552     0.36500
C3952       C  0.55913161  0.14341557  0.64719865    -0.05700
C3953       C  0.57929510  0.16315538  0.64090277    -0.32700
C3954       C  0.58480689  0.16948942  0.61107368     0.36400
H3955       H  0.54218762  0.12189567  0.57611914     0.16800
O3956       O  0.52672069  0.10836709  0.62944610    -0.60200
H3957       H  0.58803550  0.17627194  0.65875827     0.16800
O3958       O  0.60129706  0.19217976  0.60497746    -0.60300
H3959       H  0.61911376  0.18816885  0.61463746     0.43800
H3960       H  0.50973117  0.11838463  0.62356067     0.43700
O3961       O  0.64308567  0.69500477  0.04385015    -0.75200
O3962       O  0.61397523  0.66039732  0.02665441    -0.54100
C3963       C  0.63567114  0.66856578  0.03999796     0.78600
O3964       O  0.52228742  0.78145018  0.03276915    -0.59800
O3965       O  0.55203935  0.81500328  0.02134099    -0.52800
C3966       C  0.53505740  0.80438819  0.03952107     0.70600
O3967       O  0.55555961  0.69460099  0.06217670    -0.74300
O3968       O  0.56539355  0.65664916  0.03182503    -0.54900
C3969       C  0.56181730  0.66832228  0.05777862     0.76600
O3970       O  0.63118970  0.79553348  0.03774913    -0.59500
O3971       O  0.60133957  0.82052419  0.00892012    -0.52600
C3972       C  0.62091956  0.81920028  0.02774447     0.73200
Zr3973     Zr  0.62340957  0.74280396  0.03009396     2.54700
O3974       O  0.62381776  0.74681815  0.08456186    -0.80000
O3975       O  0.67246460  0.74875223  0.02640846    -0.93500
Zr3976     Zr  0.54156324  0.73353431  0.03143788     2.64700
O3977       O  0.52958892  0.74207385  0.08369855    -0.98400
O3978       O  0.49792592  0.70908831  0.03165855    -0.80500
O3979       O  0.58458970  0.71669857  0.02594618    -0.83800
O3980       O  0.57967200  0.76449193  0.02993413    -2.18500
O3981       O  0.63303463  0.78169522  0.42682699    -0.67200
O3982       O  0.60423169  0.81312012  0.45018827    -0.51800
C3983       C  0.62323868  0.80721378  0.43192070     0.71500
O3984       O  0.55354408  0.68243924  0.41832925    -0.60100
O3985       O  0.57090765  0.65002546  0.45046083    -0.52100
C3986       C  0.56397058  0.65808197  0.42395617     0.73400
O3987       O  0.53173441  0.76785636  0.41681529    -0.71500
O3988       O  0.55415392  0.80597911  0.43725044    -0.50200
C3989       C  0.54225062  0.79268438  0.41512756     0.74700
O3990       O  0.63053056  0.67904600  0.42942008    -0.66900
O3991       O  0.62235842  0.65474735  0.47129091    -0.54100
C3992       C  0.62923785  0.65534257  0.44410987     0.73100
Zr3993     Zr  0.62390101  0.73145024  0.44320909     2.77500
O3994       O  0.63106833  0.73084883  0.38930521    -0.97600
O3995       O  0.67287813  0.72938470  0.45215273    -0.78400
Zr3996     Zr  0.54138585  0.72546531  0.44498301     2.70100
O3997       O  0.51615702  0.71814803  0.39814199    -0.79700
O3998       O  0.49611935  0.71374998  0.46269828    -0.98800
Zr3999     Zr  0.58649359  0.68119685  0.49249307     2.21500
Zr4000     Zr  0.57461848  0.78691622  0.98233716     2.11100
O4001       O  0.58090526  0.75416094  0.44072354    -2.47400
O4002       O  0.58424590  0.70794701  0.45153058    -0.79500
O4003       O  0.62158134  0.76473989  0.48400740    -0.71700
O4004       O  0.54054905  0.70068649  0.99008700    -2.32600
O4005       O  0.62697211  0.70968476  0.49013222    -2.28800
O4006       O  0.53478624  0.75836491  0.98581992    -0.73400
H4007       H  0.57952965  0.77764386  0.04687527     0.78600
H4008       H  0.52755209  0.68542892  0.99189803     0.79700
H4009       H  0.58206737  0.76313577  0.42156405     0.81900
H4010       H  0.64358566  0.69860504  0.49075035     0.79500
H4011       H  0.49752104  0.69938885  0.05113065     0.42500
H4012       H  0.48493593  0.73081779  0.45856998     0.41500
H4013       H  0.49763852  0.72581888  0.40188811     0.41200
H4014       H  0.61737032  0.74433898  0.38134591     0.39100
H4015       H  0.67782051  0.70907291  0.44888143     0.42200
H4016       H  0.67790831  0.75783550  0.04575339     0.37000
H4017       H  0.61479085  0.76532198  0.08909942     0.43100
H4018       H  0.54176634  0.75757167  0.09079996     0.39600
H4019       H  0.64874831  0.74048985  0.38669648     0.44500
H4020       H  0.67479290  0.76384444  0.01149711     0.43200
H4021       H  0.51115465  0.75065389  0.08314984     0.43300
H4022       H  0.48929998  0.69887428  0.44852034     0.43700
O4023       O  0.91594293  0.71631044  0.06650802    -0.75200
O4024       O  0.90480587  0.67822284  0.03658221    -0.54100
C4025       C  0.91123723  0.68973806  0.06228325     0.78600
O4026       O  0.81964474  0.79891579  0.05965502    -0.59800
O4027       O  0.84528326  0.83354531  0.03806097    -0.52800
C4028       C  0.82661218  0.82537590  0.05546043     0.70600
O4029       O  0.83152437  0.69738703  0.05630938    -0.74300
O4030       O  0.85868257  0.66921495  0.52468080    -0.54900
C4031       C  0.84051147  0.67275607  0.04639829     0.76600
O4032       O  0.92506025  0.80771490  0.05504645    -0.59500
O4033       O  0.88905580  0.83533742  0.04486876    -0.52600
C4034       C  0.90659507  0.82529080  0.06361715     0.73200
Zr4035     Zr  0.91894395  0.75867842  0.03740961     2.54700
O4036       O  0.94606685  0.75847181  0.08351445    -0.80000
O4037       O  0.96456994  0.75529169  0.01692936    -0.93500
Zr4038     Zr  0.83595376  0.74936265  0.04404135     2.64700
O4039       O  0.84042502  0.75040772  0.09842706    -0.98400
O4040       O  0.78694437  0.74222104  0.04605005    -0.80500
O4041       O  0.87991056  0.72935251  0.03866578    -0.83800
O4042       O  0.87470762  0.77873346  0.04276621    -2.18500
O4043       O  0.91786449  0.81352399  0.45292920    -0.67200
O4044       O  0.88067424  0.83937973  0.46050905    -0.51800
C4045       C  0.90035182  0.83160150  0.44348928     0.71500
O4046       O  0.82318934  0.69679062  0.44230232    -0.60100
O4047       O  0.85456962  0.66930704  0.46635559    -0.52100
C4048       C  0.83406196  0.67217600  0.44893535     0.73400
O4049       O  0.81621919  0.79891892  0.44110431    -0.71500
O4050       O  0.82227037  0.81586960  0.48695825    -0.50200
C4051       C  0.81684346  0.82036602  0.45972610     0.74700
O4052       O  0.93232715  0.71618174  0.43963102    -0.66900
O4053       O  0.90292763  0.68136627  0.44793800    -0.54100
C4054       C  0.91886065  0.69458565  0.43028450     0.73100
Zr4055     Zr  0.91159318  0.76200580  0.44980648     2.77500
O4056       O  0.90012494  0.76388924  0.39661351    -0.97600
O4057       O  0.95669148  0.77158998  0.43019707    -0.78400
Zr4058     Zr  0.83019302  0.74928909  0.45526939     2.70100
O4059       O  0.82482699  0.74710165  0.40098959    -0.79700
O4060       O  0.78142692  0.74620649  0.46379146    -0.98800
Zr4061     Zr  0.88242224  0.70135775  0.49405278     2.21500
Zr4062     Zr  0.86855851  0.80861305  0.50175289     2.11100
O4063       O  0.86749236  0.78182515  0.45493578    -2.47400
O4064       O  0.87456951  0.72944362  0.45091949    -0.79500
O4065       O  0.91319772  0.78910342  0.49568595    -0.71700
O4066       O  0.83764927  0.72175172  0.49854942    -2.32600
O4067       O  0.92105111  0.73176749  0.49181537    -2.28800
O4068       O  0.83067674  0.77634824  0.50149342    -0.73400
H4069       H  0.87275882  0.78848058  0.06164634     0.78600
H4070       H  0.82387582  0.70719622  0.49913941     0.79700
H4071       H  0.86444016  0.79371021  0.43793984     0.81900
H4072       H  0.93753763  0.72045232  0.49098636     0.79500
H4073       H  0.78408476  0.72262468  0.03801002     0.42500
H4074       H  0.77871007  0.72669234  0.47119291     0.41500
H4075       H  0.81191590  0.73132603  0.39697427     0.41200
H4076       H  0.88017796  0.76677611  0.39555739     0.39100
H4077       H  0.95350571  0.78133990  0.41103594     0.42200
H4078       H  0.97651139  0.76133112  0.03373996     0.37000
H4079       H  0.96029590  0.74370295  0.08037745     0.43100
H4080       H  0.82498781  0.73893744  0.10548442     0.39600
H4081       H  0.90793214  0.78193273  0.38967673     0.44500
H4082       H  0.96569504  0.77104902  0.00261965     0.43200
H4083       H  0.85678074  0.73869146  0.10262087     0.43300
H4084       H  0.77816962  0.75878898  0.48149980     0.43700
O4085       O  0.67106848  0.54880274  0.14767015    -0.75200
O4086       O  0.64626246  0.52156994  0.11432259    -0.54100
C4087       C  0.64815791  0.53952837  0.13605555     0.78600
O4088       O  0.77407408  0.56164827  0.05315870    -0.59800
O4089       O  0.80688601  0.53939059  0.08034643    -0.52800
C4090       C  0.79749061  0.56110040  0.06590679     0.70600
O4091       O  0.68998704  0.54502058  0.03117952    -0.74300
O4092       O  0.66106936  0.53742120  0.06840525    -0.54900
C4093       C  0.67081546  0.55346371  0.04815973     0.76600
O4094       O  0.76765541  0.55900854  0.15911512    -0.59500
O4095       O  0.80201681  0.53324781  0.13687425    -0.52600
C4096       C  0.79321461  0.55278218  0.15451218     0.73200
Zr4097     Zr  0.72189626  0.54172583  0.14011587     2.54700
O4098       O  0.71608869  0.59308239  0.13637678    -0.80000
O4099       O  0.71904287  0.54260994  0.19456831    -0.93500
Zr4100     Zr  0.73410514  0.53227713  0.05008261     2.64700
O4101       O  0.72764193  0.57783542  0.02544591    -0.98400
O4102       O  0.75338234  0.51571416  0.00276495    -0.80500
O4103       O  0.70801356  0.53091219  0.09221027    -0.83800
O4104       O  0.75197358  0.54028739  0.09921610    -2.18500
O4105       O  0.77552332  0.95023796  0.16700704    -0.67200
O4106       O  0.80555726  0.97751895  0.14151171    -0.51800
C4107       C  0.79999619  0.95960096  0.16156126     0.71500
O4108       O  0.69296675  0.92392086  0.05280580    -0.60100
O4109       O  0.65716895  0.95326751  0.06343130    -0.52100
C4110       C  0.66754845  0.92887251  0.05577802     0.73400
O4111       O  0.78263352  0.95075342  0.04635131    -0.71500
O4112       O  0.80964124  0.95954692  0.08485479    -0.50200
C4113       C  0.80067772  0.94208273  0.06463206     0.74700
O4114       O  0.67746777  0.94717233  0.15732557    -0.66900
O4115       O  0.64994861  0.96970411  0.12369252    -0.54100
C4116       C  0.65354661  0.95388217  0.14630483     0.73100
Zr4117     Zr  0.72716785  0.95891369  0.14851944     2.77500
O4118       O  0.72860834  0.90754758  0.15544683    -0.97600
O4119       O  0.72351150  0.96902564  0.20202903    -0.78400
Zr4120     Zr  0.73533351  0.94841646  0.05961694     2.70100
O4121       O  0.74517510  0.90053233  0.07709253    -0.79700
O4122       O  0.73447285  0.92732970  0.00965730    -0.98800
Zr4123     Zr  0.67905396  0.99339376  0.09022234     2.21500
Zr4124     Zr  0.78145195  0.50003852  0.10406384     2.11100
O4125       O  0.75674962  0.95534598  0.10690257    -2.47400
O4126       O  0.70575329  0.95268349  0.10083985    -0.79500
O4127       O  0.75151893  0.50217985  0.14676656    -0.71700
O4128       O  0.70847308  0.48912293  0.04782284    -2.32600
O4129       O  0.69858528  0.99872251  0.13970432    -2.28800
O4130       O  0.76278851  0.49215494  0.05516757    -0.73400
H4131       H  0.76081337  0.55835994  0.10212557     0.78600
H4132       H  0.69817203  0.48659473  0.02944314     0.79700
H4133       H  0.76890987  0.93958758  0.11068454     0.81900
H4134       H  0.68512652  0.99985323  0.15529397     0.79500
H4135       H  0.76462561  0.53177008  0.99602223     0.42500
H4136       H  0.75204970  0.93310071  0.00108343     0.41500
H4137       H  0.72972556  0.88857655  0.07016849     0.41200
H4138       H  0.73196990  0.90534356  0.17717608     0.39100
H4139       H  0.71652525  0.95117508  0.21045565     0.42200
H4140       H  0.70655481  0.55867510  0.19934008     0.37000
H4141       H  0.70159858  0.59547679  0.12109214     0.43100
H4142       H  0.73107846  0.59269005  0.04108487     0.39600
H4143       H  0.70963552  0.90107988  0.15223952     0.44500
H4144       H  0.70856929  0.52537914  0.19940911     0.43200
H4145       H  0.74288094  0.57951101  0.01121221     0.43300
H4146       H  0.73605564  0.90653114  0.01253355     0.43700
O4147       O  0.68329790  0.54974585  0.38876870    -0.75200
O4148       O  0.65049010  0.51920433  0.39813437    -0.54100
C4149       C  0.65896268  0.54511929  0.39655620     0.78600
O4150       O  0.77692099  0.53365859  0.31448295    -0.59800
O4151       O  0.80652622  0.51731185  0.35010435    -0.52800
C4152       C  0.80125798  0.52969413  0.32560048     0.70600
O4153       O  0.67843268  0.52993112  0.31412707    -0.74300
O4154       O  0.65102282  0.49890835  0.33833135    -0.54900
C4155       C  0.65469097  0.51865009  0.31976432     0.76600
O4156       O  0.76111980  0.56196016  0.42481959    -0.59500
O4157       O  0.79934786  0.53784061  0.41072032    -0.52600
C4158       C  0.78676990  0.56067313  0.42042118     0.73200
Zr4159     Zr  0.72160882  0.53293620  0.41709755     2.54700
O4160       O  0.71186002  0.58114515  0.43555394    -0.80000
O4161       O  0.70352036  0.53081903  0.46746724    -0.93500
Zr4162     Zr  0.72853630  0.52217658  0.32775913     2.64700
O4163       O  0.72500061  0.57329401  0.32006076    -0.98400
O4164       O  0.72846222  0.51237751  0.27399482    -0.80500
O4165       O  0.70080380  0.52398139  0.37019103    -0.83800
O4166       O  0.75077838  0.53140416  0.37486657    -2.18500
O4167       O  0.77688244  0.94765963  0.45006441    -0.67200
O4168       O  0.80656616  0.95578055  0.41367720    -0.51800
C4169       C  0.79759769  0.94012572  0.43474933     0.71500
O4170       O  0.69263017  0.92052721  0.32236592    -0.60100
O4171       O  0.65853720  0.94524617  0.34627485    -0.52100
C4172       C  0.66707604  0.92575228  0.32836615     0.73400
O4173       O  0.78949014  0.93482178  0.33119295    -0.71500
O4174       O  0.81411915  0.96625665  0.36048701    -0.50200
C4175       C  0.81226637  0.94600088  0.34108297     0.74700
O4176       O  0.69640672  0.91543455  0.41962473    -0.66900
O4177       O  0.65901096  0.93799688  0.40163303    -0.54100
C4178       C  0.67162832  0.91542794  0.41076083     0.73100
Zr4179     Zr  0.73109271  0.95005304  0.42963683     2.77500
O4180       O  0.73904378  0.90187457  0.44779918    -0.97600
O4181       O  0.70867755  0.95895243  0.47720653    -0.78400
Zr4182     Zr  0.73852805  0.94029594  0.33854755     2.70100
O4183       O  0.74411200  0.88894943  0.34276580    -0.79700
O4184       O  0.74439328  0.93784908  0.28444536    -0.98800
Zr4185     Zr  0.67907266  0.97985030  0.37747342     2.21500
Zr4186     Zr  0.78108660  0.99328131  0.38687612     2.11100
O4187       O  0.75874638  0.94823555  0.38632117    -2.47400
O4188       O  0.71118659  0.94277327  0.38188012    -0.79500
O4189       O  0.75358578  0.99521279  0.43025897    -0.71700
O4190       O  0.70673658  0.97809682  0.33294584    -2.32600
O4191       O  0.69892531  0.98794678  0.42527690    -2.28800
O4192       O  0.75978637  0.98534247  0.33852204    -0.73400
H4193       H  0.76023160  0.54911276  0.37219564     0.78600
H4194       H  0.69583882  0.97489531  0.31512121     0.79700
H4195       H  0.77094400  0.93218034  0.38758706     0.81900
H4196       H  0.68486548  0.98832120  0.44024687     0.79500
H4197       H  0.73862216  0.49420622  0.27165560     0.42500
H4198       H  0.72568138  0.93807185  0.27603733     0.41500
H4199       H  0.76142936  0.88648868  0.35393854     0.41200
H4200       H  0.74597012  0.89103598  0.43015314     0.39100
H4201       H  0.71800876  0.97597549  0.48553273     0.42200
H4202       H  0.68456240  0.53787276  0.46559721     0.37000
H4203       H  0.70921613  0.59258187  0.41736431     0.43100
H4204       H  0.72246968  0.57504944  0.29814748     0.39600
H4205       H  0.75461767  0.90244279  0.46191386     0.44500
H4206       H  0.71326096  0.54600387  0.47876805     0.43200
H4207       H  0.74351901  0.58071721  0.32413657     0.43300
H4208       H  0.75111717  0.91823422  0.28032045     0.43700
O4209       O  0.51785191  0.56273945  0.17493187    -0.75200
O4210       O  0.55047382  0.58093310  0.20643963    -0.54100
C4211       C  0.54298298  0.56524174  0.18434099     0.78600
O4212       O  0.93889186  0.68709787  0.19650462    -0.59800
O4213       O  0.90570319  0.65632179  0.20412033    -0.52800
C4214       C  0.91839477  0.67315634  0.18678945     0.70600
O4215       O  0.51957442  0.65147089  0.17005068    -0.74300
O4216       O  0.55448270  0.63442029  0.19809316    -0.54900
C4217       C  0.54384077  0.64190560  0.17304059     0.76600
O4218       O  0.92130265  0.57580392  0.18467039    -0.59500
O4219       O  0.89603534  0.60459129  0.21585710    -0.52600
C4220       C  0.89835650  0.58578833  0.19508140     0.73200
Zr4221     Zr  0.97183078  0.58134771  0.19385578     2.54700
O4222       O  0.96798246  0.58195957  0.13950432    -0.80000
O4223       O  0.96440250  0.53000319  0.19282138    -0.93500
Zr4224     Zr  0.98414835  0.66748093  0.20344196     2.64700
O4225       O  0.98725530  0.69936345  0.16075348    -0.98400
O4226       O  0.00458665  0.71234635  0.22023039    -0.80500
O4227       O  0.49783969  0.61971997  0.20208544    -0.83800
O4228       O  0.95344603  0.62787896  0.19853184    -2.18500
O4229       O  0.92667731  0.56352218  0.28977116    -0.67200
O4230       O  0.90015792  0.59895081  0.27087658    -0.51800
C4231       C  0.90323059  0.57550097  0.28442799     0.71500
O4232       O  0.52431365  0.64076425  0.31617965    -0.60100
O4233       O  0.55670138  0.62768174  0.28258830    -0.52100
C4234       C  0.54821599  0.63175978  0.30961757     0.73400
O4235       O  0.94382722  0.68486297  0.29008461    -0.71500
O4236       O  0.90870629  0.65591466  0.28694012    -0.50200
C4237       C  0.92273218  0.67435994  0.30178740     0.74700
O4238       O  0.52404632  0.55685805  0.29285514    -0.66900
O4239       O  0.55373594  0.57818851  0.26146075    -0.54100
C4240       C  0.54854791  0.56152909  0.28260352     0.73100
Zr4241     Zr  0.97596275  0.57425982  0.28193551     2.77500
O4242       O  0.97419463  0.57111976  0.33627655    -0.97600
O4243       O  0.97474034  0.52255680  0.27647494    -0.78400
Zr4244     Zr  0.98701272  0.66018494  0.29016733     2.70100
O4245       O  0.97834863  0.66764043  0.34334979    -0.79700
O4246       O  0.01187265  0.70474193  0.29601218    -0.98800
Zr4247     Zr  0.52873139  0.61387545  0.23869639     2.21500
Zr4248     Zr  0.92858999  0.62981145  0.24441719     2.11100
O4249       O  0.95609837  0.62097066  0.28801666    -2.47400
O4250       O  0.50387907  0.61311893  0.28313494    -0.79500
O4251       O  0.94762197  0.58255475  0.23943177    -0.71700
O4252       O  0.51280691  0.66137646  0.24527290    -2.32600
O4253       O  0.49973397  0.57284741  0.23598895    -2.28800
O4254       O  0.95851974  0.66958103  0.24806085    -0.73400
H4255       H  0.94205855  0.62815125  0.18110130     0.78600
H4256       H  0.52781276  0.67455075  0.24675142     0.79700
H4257       H  0.94516929  0.62103753  0.30591120     0.81900
H4258       H  0.50977723  0.55516658  0.23388810     0.79500
H4259       H  0.99101358  0.72103025  0.23397210     0.42500
H4260       H  0.00540052  0.71305257  0.31524406     0.41500
H4261       H  0.97029207  0.64948539  0.34977878     0.41200
H4262       H  0.98372213  0.58842165  0.34376881     0.39100
H4263       H  0.96413391  0.51896534  0.25782914     0.42200
H4264       H  0.45667022  0.52429846  0.17299474     0.37000
H4265       H  0.44953050  0.59414301  0.13613369     0.43100
H4266       H  0.99058750  0.68758195  0.14249804     0.39600
H4267       H  0.95486044  0.57462624  0.34133351     0.44500
H4268       H  0.95145602  0.52666202  0.17599652     0.43200
H4269       H  0.96904145  0.70798734  0.15770871     0.43300
H4270       H  0.03087492  0.69882150  0.30026940     0.43700
O4271       O  0.51321612  0.80052128  0.17853747    -0.75200
O4272       O  0.54636023  0.83184313  0.18444243    -0.54100
C4273       C  0.53186597  0.81555208  0.16742673     0.77400
O4274       O  0.92740302  0.92063676  0.19244887    -0.59800
O4275       O  0.89983412  0.89673365  0.22436435    -0.52800
C4276       C  0.90363815  0.91455536  0.20372187     0.70600
O4277       O  0.52569940  0.91741980  0.18324478    -0.74300
O4278       O  0.55446237  0.88385427  0.20167171    -0.54900
C4279       C  0.55002555  0.90654706  0.18723978     0.76600
O4280       O  0.91984641  0.80912784  0.20225124    -0.59500
O4281       O  0.89344746  0.84582039  0.21099939    -0.52600
C4282       C  0.90138089  0.82600816  0.19302948     0.73200
Zr4283     Zr  0.96671027  0.81912083  0.19100267     2.54700
O4284       O  0.95501709  0.83425274  0.14065985    -0.80000
O4285       O  0.95767234  0.77317961  0.16623675    -0.93500
Zr4286     Zr  0.97687447  0.90505319  0.19903185     2.64700
O4287       O  0.97363605  0.90970517  0.14492074    -0.98400
O4288       O  0.97862493  0.95638774  0.20794660    -0.80500
O4289       O  0.49524149  0.85995513  0.19668474    -0.83800
O4290       O  0.94762739  0.86495132  0.20006904    -2.18500
O4291       O  0.94009585  0.81551480  0.31436798    -0.67200
O4292       O  0.90611092  0.84269486  0.29463406    -0.51800
C4293       C  0.91756859  0.82946363  0.31671078     0.71500
O4294       O  0.53995760  0.90187235  0.29526801    -0.60100
O4295       O  0.56295572  0.87864210  0.25771289    -0.52100
C4296       C  0.56224798  0.89401756  0.28158894     0.73400
O4297       O  0.94343406  0.91780829  0.30635918    -0.71500
O4298       O  0.90788005  0.89619310  0.28163537    -0.50200
C4299       C  0.91757675  0.91381777  0.30081755     0.74700
O4300       O  0.52552675  0.79553466  0.28123123    -0.66900
O4301       O  0.55366074  0.83135112  0.27286379    -0.54100
C4302       C  0.54459484  0.81196188  0.28980359     0.73100
Zr4303     Zr  0.97638060  0.81098135  0.27784634     2.77500
O4304       O  0.98669759  0.77838956  0.31853149    -0.97600
O4305       O  0.95583346  0.76835219  0.25553502    -0.78400
Zr4306     Zr  0.98822076  0.89861621  0.28634794     2.70100
O4307       O  0.99435063  0.89493861  0.34036676    -0.79700
O4308       O  0.99454089  0.95008881  0.28691582    -0.98800
Zr4309     Zr  0.52883659  0.85293677  0.23117793     2.21500
Zr4310     Zr  0.92680660  0.86258759  0.24855423     2.11100
O4311       O  0.95991269  0.85840692  0.28722922    -2.47400
O4312       O  0.50371182  0.85371034  0.27345886    -0.79500
O4313       O  0.94437990  0.81589258  0.23856859    -0.71700
O4314       O  0.50965893  0.89978241  0.23887129    -2.32600
O4315       O  0.50151037  0.81073849  0.23075989    -2.28800
O4316       O  0.95598511  0.90362377  0.24698501    -0.73400
H4317       H  0.93425167  0.86808691  0.18463636     0.78600
H4318       H  0.52310745  0.91470736  0.23903211     0.79700
H4319       H  0.95309901  0.86189968  0.30707679     0.81900
H4320       H  0.51165281  0.79309237  0.22879974     0.79500
H4321       H  0.46485367  0.95994214  0.22481531     0.42500
H4322       H  0.00426372  0.95430753  0.30600137     0.41500
H4323       H  0.01426813  0.89363560  0.34367716     0.41200
H4324       H  0.97381429  0.78261550  0.33496738     0.39100
H4325       H  0.94369299  0.76111718  0.27120748     0.42200
H4326       H  0.94618758  0.76286356  0.18048739     0.37000
H4327       H  0.46367341  0.85459681  0.13978008     0.43100
H4328       H  0.95493969  0.90344548  0.13970964     0.39600
H4329       H  0.98129114  0.75937146  0.31066264     0.44500
H4330       H  0.97509410  0.76251072  0.16638357     0.43200
H4331       H  0.97339275  0.93052762  0.14179334     0.43300
H4332       H  0.00818852  0.95352820  0.27122888     0.43700
C4333       C  0.83916878  0.93630355  0.32992323    -0.05300
C4334       C  0.85104456  0.95095222  0.30633419    -0.32800
C4335       C  0.87881195  0.94746622  0.29963539     0.36500
C4336       C  0.89549745  0.92912555  0.31661176    -0.05700
C4337       C  0.88385803  0.91551013  0.34103838    -0.32700
C4338       C  0.85613675  0.91916495  0.34785032     0.36400
H4339       H  0.83881185  0.96552092  0.29327800     0.16800
O4340       O  0.88930971  0.96098105  0.27539052    -0.60200
H4341       H  0.89582915  0.90034944  0.35363193     0.16800
O4342       O  0.84584568  0.90601925  0.37232187    -0.60300
H4343       H  0.84434142  0.88560735  0.36633656     0.43800
H4344       H  0.88328027  0.94953586  0.25765068     0.43700
C4345       C  0.64410236  0.90978150  0.31448664    -0.05300
C4346       C  0.62318685  0.90157861  0.33390778    -0.32800
C4347       C  0.59627740  0.89790534  0.32395913     0.36500
C4348       C  0.58969245  0.90148378  0.29367230    -0.05700
C4349       C  0.61095246  0.90774671  0.27365359    -0.32700
C4350       C  0.63782400  0.91229930  0.28391352     0.36400
H4351       H  0.62737434  0.90029948  0.35755967     0.16800
O4352       O  0.57673954  0.89017217  0.34392783    -0.60200
H4353       H  0.60654120  0.90980695  0.24998417     0.16800
O4354       O  0.65733603  0.92070615  0.26421209    -0.60300
H4355       H  0.65669938  0.94184004  0.26485103     0.43800
H4356       H  0.57214206  0.90787610  0.35535832     0.43700
C4357       C  0.87711101  0.56219884  0.29347481    -0.05300
C4358       C  0.85227941  0.57696258  0.28807446    -0.32800
C4359       C  0.82710255  0.56585962  0.29629820     0.36500
C4360       C  0.82612636  0.53964118  0.31050908    -0.05700
C4361       C  0.85074407  0.52450755  0.31518382    -0.32700
C4362       C  0.87593195  0.53540735  0.30675191     0.36400
H4363       H  0.85218221  0.59769729  0.27789062     0.16800
O4364       O  0.80398171  0.58195960  0.29263554    -0.60200
H4365       H  0.85065430  0.50455537  0.32683986     0.16800
O4366       O  0.89911354  0.51977815  0.31194580    -0.60300
H4367       H  0.90433972  0.52431993  0.33301056     0.43800
H4368       H  0.79559179  0.57476119  0.27368197     0.43700
C4369       C  0.62843033  0.52908661  0.30653445    -0.05300
C4370       C  0.60578021  0.51032989  0.30446564    -0.32800
C4371       C  0.57910970  0.52026743  0.29849090     0.36500
C4372       C  0.57433283  0.54950778  0.29530045    -0.05700
C4373       C  0.59706647  0.56802359  0.29719350    -0.32700
C4374       C  0.62366038  0.55809734  0.30204179     0.36400
H4375       H  0.60873813  0.48770775  0.30778288     0.16800
O4376       O  0.55814933  0.50124676  0.29518257    -0.60200
H4377       H  0.59441078  0.59060344  0.29373732     0.16800
O4378       O  0.64464028  0.57720634  0.30333797    -0.60300
H4379       H  0.65051149  0.57923131  0.28230403     0.43800
H4380       H  0.56046755  0.49245806  0.27495283     0.43700
C4381       C  0.82495915  0.94897389  0.17725639    -0.05300
C4382       C  0.84842024  0.96657046  0.17831489    -0.32800
C4383       C  0.87433270  0.95583673  0.18583594     0.36500
C4384       C  0.87745775  0.92701611  0.19264377    -0.05700
C4385       C  0.85383393  0.90973862  0.19279834    -0.32700
C4386       C  0.82795614  0.92039899  0.18522575     0.36400
H4387       H  0.84681233  0.98879474  0.17238234     0.16800
O4388       O  0.89627563  0.97377177  0.18672112    -0.60200
H4389       H  0.85542637  0.88748075  0.19854026     0.16800
O4390       O  0.80601887  0.90242197  0.18464408    -0.60300
H4391       H  0.80758307  0.89124888  0.16561935     0.43800
H4392       H  0.89765605  0.98061394  0.20785188     0.43700
C4393       C  0.62750938  0.94309347  0.15928078    -0.05300
C4394       C  0.60253802  0.95754413  0.15350784    -0.32800
C4395       C  0.57711649  0.94626299  0.16178071     0.36500
C4396       C  0.57598006  0.92006768  0.17645255    -0.05700
C4397       C  0.60118054  0.90619143  0.18274685    -0.32700
C4398       C  0.62638617  0.91734355  0.17443887     0.36400
H4399       H  0.60260611  0.97766282  0.14203783     0.16800
O4400       O  0.55372695  0.96112214  0.15547165    -0.60200
H4401       H  0.60170063  0.88608431  0.19418516     0.16800
O4402       O  0.64972962  0.90234567  0.18063931    -0.60300
H4403       H  0.65185818  0.88863768  0.16358812     0.43800
H4404       H  0.54871650  0.95525671  0.13468244     0.43700
C4405       C  0.87181702  0.57599417  0.18336085    -0.05300
C4406       C  0.85507309  0.56027128  0.20226776    -0.32800
C4407       C  0.82746083  0.55586325  0.19531058     0.36500
C4408       C  0.81581354  0.56791376  0.16956568    -0.05700
C4409       C  0.83229896  0.58490628  0.15155399    -0.32700
C4410       C  0.86001183  0.58904580  0.15832349     0.36400
H4411       H  0.86346983  0.55145470  0.22262560     0.16800
O4412       O  0.81224188  0.53867247  0.21306885    -0.60200
H4413       H  0.82402725  0.59355776  0.13108036     0.16800
O4414       O  0.87520595  0.60667663  0.14100477    -0.60300
H4415       H  0.87846017  0.59581916  0.12206762     0.43800
H4416       H  0.81624283  0.51892048  0.20602008     0.43700
C4417       C  0.62132598  0.54760105  0.14873826    -0.05300
C4418       C  0.61474244  0.53858960  0.17745833    -0.32800
C4419       C  0.58780034  0.54021003  0.18778928     0.36500
C4420       C  0.56666766  0.55122163  0.16944396    -0.05700
C4421       C  0.57294619  0.55798220  0.13991844    -0.32700
C4422       C  0.59989911  0.55639230  0.12959743     0.36400
H4423       H  0.63040175  0.52957010  0.19170573     0.16800
O4424       O  0.58216811  0.53138050  0.21619778    -0.60200
H4425       H  0.55727103  0.56580890  0.12513427     0.16800
O4426       O  0.60527129  0.56421896  0.10083578    -0.60300
H4427       H  0.60040433  0.54743745  0.08805916     0.43800
H4428       H  0.59174272  0.54491721  0.22995637     0.43700
C4429       C  0.81133809  0.85007486  0.06738422    -0.05300
C4430       C  0.82417178  0.86766710  0.08921255    -0.32800
C4431       C  0.82140514  0.89764409  0.08879781     0.36500
C4432       C  0.80635634  0.91065885  0.06561270    -0.05700
C4433       C  0.79327567  0.89273695  0.04439074    -0.32700
C4434       C  0.79421525  0.86306185  0.04627709     0.36400
H4435       H  0.83816990  0.85827946  0.10511666     0.16800
O4436       O  0.83416126  0.91384163  0.11057751    -0.60200
H4437       H  0.78182519  0.90168186  0.02611753     0.16800
O4438       O  0.78174998  0.84684309  0.02424037    -0.60300
H4439       H  0.76205373  0.84769859  0.02887270     0.43800
H4440       H  0.85237782  0.91806249  0.10243095     0.43700
C4441       C  0.83132794  0.64541906  0.05935100    -0.05300
C4442       C  0.84878105  0.62124071  0.05777952    -0.32800
C4443       C  0.83888456  0.59344675  0.06161034     0.36500
C4444       C  0.81113498  0.58941483  0.06705191    -0.05700
C4445       C  0.79439573  0.61377135  0.07149242    -0.32700
C4446       C  0.80419293  0.64143062  0.06767136     0.36400
H4447       H  0.86992107  0.62376646  0.05168466     0.16800
O4448       O  0.85588990  0.57052647  0.05713192    -0.60200
H4449       H  0.77300206  0.61127907  0.07651500     0.16800
O4450       O  0.78631194  0.66396331  0.06890440    -0.60300
H4451       H  0.78717813  0.67114537  0.08993628     0.43800
H4452       H  0.86115351  0.56437122  0.07749316     0.43700
C4453       C  0.80815640  0.91055527  0.43902249    -0.05300
C4454       C  0.80453768  0.88946454  0.41622779    -0.32800
C4455       C  0.80720781  0.86008529  0.42206565     0.36500
C4456       C  0.81358220  0.85109955  0.45120356    -0.05700
C4457       C  0.81813097  0.87246210  0.47356464    -0.32700
C4458       C  0.81537302  0.90158743  0.46773839     0.36400
H4459       H  0.79832716  0.89550439  0.39399025     0.16800
O4460       O  0.80305943  0.84053032  0.39924885    -0.60200
H4461       H  0.82361841  0.86674069  0.49615697     0.16800
O4462       O  0.81855151  0.92120232  0.49071214    -0.60300
H4463       H  0.83846424  0.92232623  0.49435904     0.43800
H4464       H  0.78332112  0.83624712  0.39965968     0.43700
C4465       C  0.80076524  0.58881346  0.42483263    -0.05300
C4466       C  0.78545735  0.61406829  0.42003409    -0.32800
C4467       C  0.79609449  0.64135180  0.42624927     0.36500
C4468       C  0.82277056  0.64423336  0.43738344    -0.05700
C4469       C  0.83853705  0.61894718  0.44072152    -0.32700
C4470       C  0.82785728  0.59165652  0.43445646     0.36400
H4471       H  0.76466234  0.61272930  0.41185272     0.16800
O4472       O  0.77989622  0.66486930  0.42213111    -0.60200
H4473       H  0.85927013  0.62013546  0.44908849     0.16800
O4474       O  0.84357876  0.56802182  0.43966418    -0.60300
H4475       H  0.85273612  0.56368721  0.42037863     0.43800
H4476       H  0.76799702  0.66600140  0.43995761     0.43700
C4477       C  0.90154272  0.83988530  0.41149586    -0.05300
C4478       C  0.87931571  0.83495601  0.39169192    -0.32800
C4479       C  0.88320892  0.83286324  0.36025849     0.36500
C4480       C  0.90955828  0.83568739  0.34849460    -0.05700
C4481       C  0.93077606  0.84387284  0.36833200    -0.32700
C4482       C  0.92694591  0.84597163  0.39925894     0.36400
H4483       H  0.85944037  0.83041073  0.40062363     0.16800
O4484       O  0.86161532  0.82645340  0.34172641    -0.60200
H4485       H  0.95100133  0.84766512  0.35985033     0.16800
O4486       O  0.94847963  0.85326189  0.41759533    -0.60300
H4487       H  0.95754639  0.83502231  0.42254191     0.43800
H4488       H  0.86263049  0.80553411  0.33824798     0.43700
C4489       C  0.89536548  0.82662965  0.16011046    -0.05300
C4490       C  0.89372334  0.85253226  0.14446366    -0.32800
C4491       C  0.89682605  0.85301304  0.11289762     0.36500
C4492       C  0.90149481  0.82738866  0.09663961    -0.05700
C4493       C  0.90070452  0.80167365  0.11225839    -0.32700
C4494       C  0.89724011  0.80111634  0.14322618     0.36400
H4495       H  0.89198634  0.87254676  0.15675845     0.16800
O4496       O  0.89655387  0.87853715  0.09851917    -0.60200
H4497       H  0.90284091  0.78149746  0.10036978     0.16800
O4498       O  0.89695214  0.77528967  0.15702014    -0.60300
H4499       H  0.87744849  0.77011863  0.15816201     0.43800
H4500       H  0.91473980  0.88694813  0.10249539     0.43700
C4501       C  0.91757109  0.68081138  0.33398134    -0.05300
C4502       C  0.90665682  0.65993659  0.35258972    -0.32800
C4503       C  0.90728540  0.66340386  0.38409267     0.36500
C4504       C  0.91958588  0.68772510  0.39745634    -0.05700
C4505       C  0.93037675  0.70837777  0.37854534    -0.32700
C4506       C  0.92871239  0.70556366  0.34745665     0.36400
H4507       H  0.89863778  0.64035627  0.34280658     0.16800
O4508       O  0.89699418  0.64236031  0.40149689    -0.60200
H4509       H  0.93991380  0.72739795  0.38777785     0.16800
O4510       O  0.93929929  0.72673083  0.33039981    -0.60300
H4511       H  0.92426174  0.74069427  0.32792524     0.43800
H4512       H  0.87697615  0.64341086  0.39866282     0.43700
C4513       C  0.90998282  0.67400466  0.09043542    -0.05300
C4514       C  0.88720253  0.67956897  0.10878434    -0.32800
C4515       C  0.88915277  0.67866663  0.14019410     0.36500
C4516       C  0.91395720  0.67130816  0.15375773    -0.05700
C4517       C  0.93594962  0.66323504  0.13522302    -0.32700
C4518       C  0.93423721  0.66486363  0.10397881     0.36400
H4519       H  0.86868358  0.68788155  0.09899249     0.16800
O4520       O  0.86752519  0.68746060  0.15732516    -0.60200
H4521       H  0.95515543  0.65689479  0.14501653     0.16800
O4522       O  0.95730318  0.66083984  0.08727204    -0.60300
H4523       H  0.95523308  0.64173266  0.07763731     0.43800
H4524       H  0.86984762  0.70834534  0.16011400     0.43700
C4525       C  0.65835084  0.88708007  0.41038499    -0.05300
C4526       C  0.63026314  0.88483529  0.41357181    -0.32800
C4527       C  0.61824204  0.85814796  0.41642096     0.36500
C4528       C  0.63447719  0.83299641  0.41792056    -0.05700
C4529       C  0.66225162  0.83496596  0.41216621    -0.32700
C4530       C  0.67415198  0.86162930  0.40786165     0.36400
H4531       H  0.61761413  0.90382096  0.41455251     0.16800
O4532       O  0.59053518  0.85705914  0.41935068    -0.60200
H4533       H  0.67507220  0.81612392  0.41279297     0.16800
O4534       O  0.70156436  0.86257641  0.40240392    -0.60300
H4535       H  0.70329940  0.85912351  0.38051155     0.43800
H4536       H  0.58364099  0.85394442  0.39864413     0.43700
C4537       C  0.63361300  0.62637116  0.42991949    -0.05300
C4538       C  0.64304291  0.62331942  0.40060081    -0.32800
C4539       C  0.64786640  0.59616422  0.38786961     0.36500
C4540       C  0.64318043  0.57113956  0.40427694    -0.05700
C4541       C  0.63193935  0.57392954  0.43269990    -0.32700
C4542       C  0.62698322  0.60097869  0.44552456     0.36400
H4543       H  0.64778191  0.64195875  0.38782563     0.16800
O4544       O  0.65895167  0.59423195  0.35982986    -0.60200
H4545       H  0.62903912  0.55520011  0.44608315     0.16800
O4546       O  0.61678097  0.60204185  0.47404956    -0.60300
H4547       H  0.59685886  0.59945358  0.47160237     0.43800
H4548       H  0.67814598  0.60038234  0.36228876     0.43700
C4549       C  0.65046010  0.90338874  0.05176802    -0.05300
C4550       C  0.65457234  0.88067603  0.07154736    -0.32800
C4551       C  0.64500133  0.85312365  0.06457898     0.36500
C4552       C  0.63161528  0.84777170  0.03709215    -0.05700
C4553       C  0.62674355  0.87101955  0.01793637    -0.32700
C4554       C  0.63584243  0.89851292  0.02518712     0.36400
H4555       H  0.66625107  0.88414005  0.09200665     0.16800
O4556       O  0.64921679  0.83169891  0.08452347    -0.60200
H4557       H  0.61639484  0.86782953  0.99660513     0.16800
O4558       O  0.63222128  0.91987399  0.00501974    -0.60300
H4559       H  0.61687290  0.93151717  0.01293659     0.43800
H4560       H  0.63291043  0.83204513  0.09747916     0.43700
C4561       C  0.66270037  0.58405104  0.04676591    -0.05300
C4562       C  0.65668300  0.59944107  0.07334580    -0.32800
C4563       C  0.65157002  0.62909491  0.07314208     0.36500
C4564       C  0.65365198  0.64405318  0.04628967    -0.05700
C4565       C  0.66214362  0.62896376  0.02043846    -0.32700
C4566       C  0.66568426  0.59932956  0.02019420     0.36400
H4567       H  0.65576138  0.58845607  0.09438342     0.16800
O4568       O  0.64437642  0.64330341  0.09908731    -0.60200
H4569       H  0.66301512  0.63979848  0.99927705     0.16800
O4570       O  0.66991228  0.58520357  0.99339027    -0.60300
H4571       H  0.68661037  0.59353478  0.98496439     0.43800
H4572       H  0.62921476  0.63234532  0.10766432     0.43700
C4573       C  0.55211074  0.81125893  0.32176220    -0.05300
C4574       C  0.54150505  0.83260343  0.34120021    -0.32800
C4575       C  0.53862985  0.82785753  0.37215329     0.36500
C4576       C  0.54682873  0.80161184  0.38383495    -0.05700
C4577       C  0.55892354  0.78112016  0.36441870    -0.32700
C4578       C  0.56140027  0.78566697  0.33381115     0.36400
H4579       H  0.53296462  0.85185226  0.33192439     0.16800
O4580       O  0.52510748  0.84739531  0.38991157    -0.60200
H4581       H  0.56525598  0.76058817  0.37274721     0.16800
O4582       O  0.57053982  0.76388680  0.31544775    -0.60300
H4583       H  0.58988982  0.76833995  0.31160293     0.43800
H4584       H  0.53631024  0.86489980  0.38994163     0.43700
C4585       C  0.53294209  0.81565976  0.07070330    -0.05300
C4586       C  0.55649800  0.82422493  0.08683008    -0.32800
C4587       C  0.55668930  0.82529050  0.11848350     0.36500
C4588       C  0.53361050  0.81628023  0.13419730    -0.05700
C4589       C  0.51006326  0.80913872  0.11769609    -0.32700
C4590       C  0.50913311  0.81043409  0.08666307     0.36400
H4591       H  0.57521227  0.82830455  0.07504489     0.16800
O4592       O  0.58002853  0.83294899  0.13359846    -0.60200
H4593       H  0.49210925  0.80192708  0.12880026     0.16800
O4594       O  0.48520782  0.80424914  0.07198544    -0.60300
H4595       H  0.47772271  0.82299559  0.06607094     0.43800
H4596       H  0.57886540  0.85397030  0.13611212     0.43700
C4597       C  0.57102550  0.64128682  0.39665713    -0.05300
C4598       C  0.55702598  0.61635275  0.38865452    -0.32800
C4599       C  0.55428869  0.60842465  0.35822109     0.36500
C4600       C  0.56529122  0.62585896  0.33586685    -0.05700
C4601       C  0.58352409  0.64706658  0.34427982    -0.32700
C4602       C  0.58588095  0.65543952  0.37437007     0.36400
H4603       H  0.54536637  0.60528933  0.40524580     0.16800
O4604       O  0.53668342  0.58693650  0.35029518    -0.60200
H4605       H  0.59185633  0.66073708  0.32740253     0.16800
O4606       O  0.59846084  0.68081086  0.38107086    -0.60300
H4607       H  0.61698231  0.67918159  0.37251652     0.43800
H4608       H  0.54751393  0.56914951  0.35203193     0.43700
C4609       C  0.56650893  0.65226559  0.08504385    -0.05300
C4610       C  0.54949920  0.62961843  0.09153562    -0.32800
C4611       C  0.54475548  0.62309668  0.12140048     0.36500
C4612       C  0.55833163  0.63823184  0.14476561    -0.05700
C4613       C  0.57870431  0.65753025  0.13784359    -0.32700
C4614       C  0.58246755  0.66503387  0.10804574     0.36400
H4615       H  0.53691340  0.61995167  0.07408438     0.16800
O4616       O  0.52384368  0.60501013  0.12780598    -0.60200
H4617       H  0.58887639  0.66966912  0.15552302     0.16800
O4618       O  0.59980148  0.68692081  0.10174443    -0.60300
H4619       H  0.59006619  0.70462050  0.10798625     0.43800
H4620       H  0.50692758  0.61599591  0.12388007     0.43700
O4621       O  0.64374136  0.69415892  0.54555720    -0.75200
O4622       O  0.61528651  0.65927390  0.52740117    -0.54100
C4623       C  0.63640651  0.66764060  0.54164673     0.78600
O4624       O  0.52397476  0.78284667  0.53168269    -0.59800
O4625       O  0.55519888  0.81526641  0.52176132    -0.52800
C4626       C  0.53730533  0.80514623  0.53930597     0.70600
O4627       O  0.55793824  0.69802220  0.56398206    -0.74300
O4628       O  0.56598000  0.65856308  0.53532220    -0.54900
C4629       C  0.56340590  0.67142785  0.56087166     0.76600
O4630       O  0.63464211  0.79547567  0.53681076    -0.59500
O4631       O  0.60610340  0.82054457  0.50627238    -0.52600
C4632       C  0.62556828  0.81905628  0.52530878     0.73200
Zr4633     Zr  0.62545367  0.74267895  0.53124441     2.54700
O4634       O  0.62425249  0.74746515  0.58563795    -0.80000
O4635       O  0.67482316  0.74724044  0.53145470    -0.93500
Zr4636     Zr  0.54223317  0.73459864  0.53124600     2.64700
O4637       O  0.52719764  0.74327218  0.58241293    -0.98400
O4638       O  0.49872644  0.70994367  0.53107124    -0.80500
O4639       O  0.58620297  0.71410391  0.53296659    -0.83800
O4640       O  0.58148541  0.76438049  0.52959455    -2.18500
O4641       O  0.63186659  0.78454984  0.92740360    -0.67200
O4642       O  0.60271549  0.81453844  0.95211136    -0.51800
C4643       C  0.62202921  0.80976322  0.93382265     0.71500
O4644       O  0.55181825  0.68381927  0.91655014    -0.60100
O4645       O  0.56840429  0.65129674  0.94899442    -0.52100
C4646       C  0.56178848  0.65924491  0.92238893     0.73400
O4647       O  0.52361288  0.77112909  0.92354673    -0.71500
O4648       O  0.55168887  0.80684148  0.93810569    -0.50200
C4649       C  0.53733829  0.79351778  0.91800205     0.74700
O4650       O  0.62906425  0.68201559  0.92665195    -0.66900
O4651       O  0.62107496  0.65622318  0.96762199    -0.54100
C4652       C  0.62743723  0.65780199  0.94028641     0.73100
Zr4653     Zr  0.62197501  0.73395423  0.94142846     2.77500
O4654       O  0.62253119  0.73517520  0.88688836    -0.97600
O4655       O  0.67144109  0.73103507  0.94366625    -0.78400
Zr4656     Zr  0.53845220  0.72603757  0.94432910     2.70100
O4657       O  0.51502722  0.72427704  0.89585675    -0.79700
O4658       O  0.49449056  0.70702732  0.95863969    -0.98800
Zr4659     Zr  0.58547970  0.68188706  0.99072100     2.21500
Zr4660     Zr  0.57722467  0.78676865  0.48208694     2.11100
O4661       O  0.57800775  0.75507616  0.94048602    -2.47400
O4662       O  0.58263104  0.70563519  0.94500094    -0.79500
O4663       O  0.61929686  0.76587255  0.98350383    -0.71700
O4664       O  0.54185986  0.70054147  0.49078195    -2.32600
O4665       O  0.62552513  0.71098287  0.98800435    -2.28800
O4666       O  0.53694382  0.75901316  0.48505218    -0.73400
H4667       H  0.58142446  0.77772375  0.54631438     0.78600
H4668       H  0.52852179  0.68556880  0.49220669     0.79700
H4669       H  0.57835205  0.76458103  0.92169177     0.81900
H4670       H  0.64228789  0.70012865  0.98836680     0.79500
H4671       H  0.50098300  0.69493838  0.54616868     0.42500
H4672       H  0.48133245  0.72197597  0.95291946     0.41500
H4673       H  0.49773396  0.71407435  0.89888024     0.41200
H4674       H  0.61379446  0.75346673  0.88156581     0.39100
H4675       H  0.67770424  0.74744252  0.93202636     0.42200
H4676       H  0.67846538  0.76289407  0.51754744     0.37000
H4677       H  0.60556473  0.75420772  0.59014792     0.43100
H4678       H  0.53954225  0.75814499  0.59061132     0.39600
H4679       H  0.64193997  0.73750362  0.88174898     0.44500
H4680       H  0.68145127  0.72989760  0.52073365     0.43200
H4681       H  0.50915294  0.75252059  0.58061484     0.43300
H4682       H  0.49095351  0.69086892  0.94453728     0.43700
O4683       O  0.91646431  0.71641449  0.56585202    -0.75200
O4684       O  0.90756911  0.67829459  0.53511951    -0.54100
C4685       C  0.91279897  0.68970103  0.56114188     0.78600
O4686       O  0.82107459  0.79755159  0.56266570    -0.59800
O4687       O  0.84387253  0.83290155  0.53873421    -0.52800
C4688       C  0.82691561  0.82421398  0.55788151     0.70600
O4689       O  0.83120704  0.69648895  0.55495425    -0.74300
O4690       O  0.85701054  0.66941983  0.02463570    -0.54900
C4691       C  0.84099239  0.67213217  0.54536760     0.76600
O4692       O  0.92524055  0.80827477  0.55389401    -0.59500
O4693       O  0.88823076  0.83493163  0.54554810    -0.52600
C4694       C  0.90663124  0.82516090  0.56345162     0.73200
Zr4695     Zr  0.91960895  0.75904897  0.53704599     2.54700
O4696       O  0.94800788  0.75969054  0.58223734    -0.80000
O4697       O  0.96520704  0.75509453  0.51651472    -0.93500
Zr4698     Zr  0.83666200  0.74845501  0.54442403     2.64700
O4699       O  0.84026354  0.74424740  0.59862463    -0.98400
O4700       O  0.78733083  0.74391099  0.54353942    -0.80500
O4701       O  0.88096581  0.72924145  0.53847550    -0.83800
O4702       O  0.87503240  0.77838819  0.54318953    -2.18500
O4703       O  0.91976137  0.81164610  0.95376014    -0.67200
O4704       O  0.88332847  0.83882906  0.95982555    -0.51800
C4705       C  0.90306180  0.83004824  0.94339905     0.71500
O4706       O  0.82316838  0.69864468  0.93995091    -0.60100
O4707       O  0.85305134  0.67058690  0.96548170    -0.52100
C4708       C  0.83351355  0.67386091  0.94687671     0.73400
O4709       O  0.81768041  0.80118211  0.94084335    -0.71500
O4710       O  0.82389889  0.81900803  0.98642362    -0.50200
C4711       C  0.81840369  0.82293737  0.95914660     0.74700
O4712       O  0.93139426  0.71375350  0.94055909    -0.66900
O4713       O  0.90148264  0.67955794  0.94904390    -0.54100
C4714       C  0.91764791  0.69229541  0.93127964     0.73100
Zr4715     Zr  0.91190925  0.76050865  0.94988791     2.77500
O4716       O  0.90215575  0.76321477  0.89633805    -0.97600
O4717       O  0.95734786  0.76775382  0.93020510    -0.78400
Zr4718     Zr  0.82996803  0.75075976  0.95481260     2.70100
O4719       O  0.82119139  0.75071344  0.90104445    -0.79700
O4720       O  0.78125043  0.74831872  0.96397848    -0.98800
Zr4721     Zr  0.88103415  0.70139738  0.99431932     2.21500
Zr4722     Zr  0.86954122  0.80879097  0.00111260     2.11100
O4723       O  0.86824227  0.78187175  0.95431599    -2.47400
O4724       O  0.87386594  0.72935281  0.95082268    -0.79500
O4725       O  0.91373724  0.78819165  0.99550139    -0.71700
O4726       O  0.83651284  0.72273415  0.99811206    -2.32600
O4727       O  0.92039257  0.73077757  0.99246483    -2.28800
O4728       O  0.83077023  0.77757794  0.00103852    -0.73400
H4729       H  0.87320847  0.78785371  0.56224830     0.78600
H4730       H  0.82257785  0.70833850  0.99860516     0.79700
H4731       H  0.86560938  0.79380814  0.93723033     0.81900
H4732       H  0.93675038  0.71925165  0.99201632     0.79500
H4733       H  0.78315821  0.73263741  0.56140206     0.42500
H4734       H  0.77886294  0.73052880  0.97516792     0.41500
H4735       H  0.83102575  0.73376883  0.89304052     0.41200
H4736       H  0.88356556  0.77122894  0.89452037     0.39100
H4737       H  0.96722499  0.77820586  0.94640180     0.42200
H4738       H  0.97723140  0.76079568  0.53338074     0.37000
H4739       H  0.96002902  0.74273494  0.58051398     0.43100
H4740       H  0.86009922  0.74342167  0.60269376     0.39600
H4741       H  0.91428538  0.77827665  0.88903661     0.44500
H4742       H  0.96655684  0.77090928  0.50229118     0.43200
H4743       H  0.83448628  0.76302845  0.60692481     0.43300
H4744       H  0.77767732  0.76377676  0.97889610     0.43700
O4745       O  0.67177622  0.55083794  0.64728954    -0.75200
O4746       O  0.64639584  0.52279655  0.61529125    -0.54100
C4747       C  0.64869275  0.54152164  0.63616209     0.78600
O4748       O  0.77335787  0.56087169  0.55180309    -0.59800
O4749       O  0.80658548  0.53923778  0.57883683    -0.52800
C4750       C  0.79697255  0.56061324  0.56415077     0.70600
O4751       O  0.68856003  0.54284497  0.53167254    -0.74300
O4752       O  0.66016005  0.53636430  0.56954715    -0.54900
C4753       C  0.66994606  0.55203984  0.54897246     0.76600
O4754       O  0.76883044  0.55874603  0.65956290    -0.59500
O4755       O  0.80273981  0.53392234  0.63541444    -0.52600
C4756       C  0.79430227  0.55273270  0.65408572     0.73200
Zr4757     Zr  0.72255216  0.54307323  0.64031117     2.54700
O4758       O  0.71836103  0.59443389  0.63485087    -0.80000
O4759       O  0.71739688  0.54697419  0.69449134    -0.93500
Zr4760     Zr  0.73307581  0.53165945  0.55034769     2.64700
O4761       O  0.72674392  0.57733406  0.52618258    -0.98400
O4762       O  0.75217149  0.51366625  0.50348320    -0.80500
O4763       O  0.70782521  0.53078015  0.59315699    -0.83800
O4764       O  0.75185831  0.54089883  0.59875718    -2.18500
O4765       O  0.77520346  0.95171390  0.67155438    -0.67200
O4766       O  0.80488500  0.97963145  0.64649756    -0.51800
C4767       C  0.79958952  0.96164931  0.66644081     0.71500
O4768       O  0.69428731  0.92716230  0.54614901    -0.60100
O4769       O  0.65852720  0.95264000  0.56523640    -0.52100
C4770       C  0.66901447  0.93059052  0.55168940     0.73400
O4771       O  0.78375632  0.94957774  0.55126247    -0.71500
O4772       O  0.80943217  0.95829330  0.59085577    -0.50200
C4773       C  0.80110984  0.94078972  0.57027894     0.74700
O4774       O  0.67694000  0.94667958  0.65980154    -0.66900
O4775       O  0.64934643  0.96957075  0.62647139    -0.54100
C4776       C  0.65300690  0.95340331  0.64884581     0.73100
Zr4777     Zr  0.72669288  0.95878981  0.65185364     2.77500
O4778       O  0.72872025  0.90716706  0.65589692    -0.97600
O4779       O  0.72180094  0.96448688  0.70593861    -0.78400
Zr4780     Zr  0.73597681  0.94861646  0.56281236     2.70100
O4781       O  0.74210195  0.90083539  0.58218922    -0.79700
O4782       O  0.73813193  0.92737230  0.51278703    -0.98800
Zr4783     Zr  0.67901680  0.99321397  0.59323762     2.21500
Zr4784     Zr  0.78126453  0.50067361  0.60351460     2.11100
O4785       O  0.75656559  0.95537324  0.61060841    -2.47400
O4786       O  0.70572393  0.95238319  0.60375702    -0.79500
O4787       O  0.75247324  0.50383469  0.64711922    -0.71700
O4788       O  0.70716913  0.48855114  0.54990006    -2.32600
O4789       O  0.69809759  0.99868543  0.64297265    -2.28800
O4790       O  0.76157539  0.49160166  0.55545448    -0.73400
H4791       H  0.76088746  0.55892155  0.60115430     0.78600
H4792       H  0.69662859  0.48555099  0.53177594     0.79700
H4793       H  0.76851106  0.93954673  0.61479508     0.81900
H4794       H  0.68439095  0.99997687  0.65830159     0.79500
H4795       H  0.76262797  0.52982540  0.49563334     0.42500
H4796       H  0.75649519  0.93173862  0.50527651     0.41500
H4797       H  0.73191438  0.88819475  0.56809780     0.41200
H4798       H  0.74836866  0.90239831  0.65516771     0.39100
H4799       H  0.70192863  0.96521300  0.70941946     0.42200
H4800       H  0.69988349  0.53755694  0.69865607     0.37000
H4801       H  0.73482018  0.59994382  0.62376010     0.43100
H4802       H  0.72980110  0.59204600  0.54206204     0.39600
H4803       H  0.72345846  0.90359015  0.67683538     0.44500
H4804       H  0.73139376  0.53392879  0.70263128     0.43200
H4805       H  0.74206359  0.57939453  0.51212478     0.43300
H4806       H  0.73764993  0.90646711  0.51520154     0.43700
O4807       O  0.68454078  0.55480625  0.89001662    -0.75200
O4808       O  0.65118218  0.52306299  0.89496036    -0.54100
C4809       C  0.65953639  0.54917911  0.89396909     0.78600
O4810       O  0.77764158  0.53323795  0.81207965    -0.59800
O4811       O  0.80699917  0.51725583  0.84804564    -0.52800
C4812       C  0.80198410  0.52899443  0.82308216     0.70600
O4813       O  0.67902384  0.53104371  0.81262233    -0.74300
O4814       O  0.65122240  0.50085470  0.83758679    -0.54900
C4815       C  0.65517999  0.52004350  0.81844938     0.76600
O4816       O  0.76203941  0.56343927  0.92341462    -0.59500
O4817       O  0.79998455  0.53931391  0.90844029    -0.52600
C4818       C  0.78753851  0.56221321  0.91816893     0.73200
Zr4819     Zr  0.72244481  0.53441537  0.91630958     2.54700
O4820       O  0.71723516  0.58245051  0.93750875    -0.80000
O4821       O  0.70245069  0.53176596  0.96582717    -0.93500
Zr4822     Zr  0.72912692  0.52350712  0.82659320     2.64700
O4823       O  0.72804446  0.57462621  0.81824342    -0.98400
O4824       O  0.72946006  0.51289655  0.77296827    -0.80500
O4825       O  0.70168023  0.52574238  0.86940101    -0.83800
O4826       O  0.75126102  0.53252161  0.87374506    -2.18500
O4827       O  0.77691568  0.94995625  0.94828845    -0.67200
O4828       O  0.80687720  0.95777516  0.91201429    -0.51800
C4829       C  0.79776152  0.94235490  0.93320022     0.71500
O4830       O  0.69147922  0.91987087  0.82297794    -0.60100
O4831       O  0.65771455  0.94629748  0.84538417    -0.52100
C4832       C  0.66591036  0.92562222  0.82885140     0.73400
O4833       O  0.78903927  0.93400299  0.82973228    -0.71500
O4834       O  0.81400182  0.96555729  0.85859649    -0.50200
C4835       C  0.81193869  0.94491677  0.83965683     0.74700
O4836       O  0.69616595  0.91784345  0.91869643    -0.66900
O4837       O  0.65901281  0.94044031  0.90007114    -0.54100
C4838       C  0.67134179  0.91797281  0.90992792     0.73100
Zr4839     Zr  0.73111585  0.95259017  0.92770145     2.77500
O4840       O  0.73821217  0.90489161  0.94772218    -0.97600
O4841       O  0.70936033  0.96480921  0.97487676    -0.78400
Zr4842     Zr  0.73807218  0.94031284  0.83699663     2.70100
O4843       O  0.74410454  0.88925765  0.84348919    -0.79700
O4844       O  0.74219301  0.93673779  0.78271756    -0.98800
Zr4845     Zr  0.67923083  0.98152946  0.87448182     2.21500
Zr4846     Zr  0.78165302  0.99449010  0.88391551     2.11100
O4847       O  0.75861368  0.94989249  0.88440205    -2.47400
O4848       O  0.71091692  0.94428009  0.88024014    -0.79500
O4849       O  0.75410641  0.99744305  0.92712657    -0.71700
O4850       O  0.70678529  0.97833268  0.82993386    -2.32600
O4851       O  0.69926840  0.99059809  0.92198927    -2.28800
O4852       O  0.76001674  0.98513275  0.83594826    -0.73400
H4853       H  0.76084002  0.55011435  0.87090108     0.78600
H4854       H  0.69585487  0.97465601  0.81223046     0.79700
H4855       H  0.77077988  0.93402488  0.88613785     0.81900
H4856       H  0.68510105  0.99146117  0.93682201     0.79500
H4857       H  0.71514243  0.52537198  0.76451166     0.42500
H4858       H  0.75646568  0.92208134  0.77923873     0.41500
H4859       H  0.76354011  0.88680375  0.84894065     0.41200
H4860       H  0.74192986  0.89256634  0.92992914     0.39100
H4861       H  0.72245450  0.97786812  0.98482264     0.42200
H4862       H  0.68375816  0.53937558  0.96323692     0.37000
H4863       H  0.71316995  0.59468782  0.92021939     0.43100
H4864       H  0.73601258  0.57669455  0.79811092     0.39600
H4865       H  0.75554941  0.90464520  0.95905519     0.44500
H4866       H  0.71210842  0.54632461  0.97810193     0.43200
H4867       H  0.74194033  0.58266089  0.83217119     0.43300
H4868       H  0.75084327  0.95484410  0.77710059     0.43700
O4869       O  0.51935350  0.56466528  0.67651038    -0.75200
O4870       O  0.55141220  0.58532300  0.70695292    -0.54100
C4871       C  0.54439134  0.56855006  0.68563853     0.78600
O4872       O  0.93846041  0.68760761  0.69474971    -0.59800
O4873       O  0.90550177  0.65669124  0.70295179    -0.52800
C4874       C  0.91811689  0.67326292  0.68526024     0.70600
O4875       O  0.51894308  0.65356502  0.67183196    -0.74300
O4876       O  0.55398152  0.63891719  0.70112290    -0.54900
C4877       C  0.54361271  0.64554460  0.67571836     0.76600
O4878       O  0.92323975  0.57578277  0.68336043    -0.59500
O4879       O  0.89719118  0.60488460  0.71348788    -0.52600
C4880       C  0.90001192  0.58573240  0.69313042     0.73200
Zr4881     Zr  0.97370746  0.58268070  0.69292356     2.54700
O4882       O  0.97105630  0.58380647  0.63846624    -0.80000
O4883       O  0.96769834  0.53116769  0.69309231    -0.93500
Zr4884     Zr  0.98412734  0.66896390  0.70190846     2.64700
O4885       O  0.98665754  0.70039443  0.65878115    -0.98400
O4886       O  0.00324933  0.71448885  0.71866826    -0.80500
O4887       O  0.49783452  0.62139884  0.70274054    -0.83800
O4888       O  0.95414860  0.62868671  0.69754466    -2.18500
O4889       O  0.92793112  0.56309377  0.78755870    -0.67200
O4890       O  0.90080842  0.59737938  0.76752768    -0.51800
C4891       C  0.90422344  0.57396682  0.78107560     0.71500
O4892       O  0.52369377  0.63918556  0.81706771    -0.60100
O4893       O  0.55653259  0.62918931  0.78311598    -0.52100
C4894       C  0.54789651  0.63126513  0.81017481     0.73400
O4895       O  0.94171564  0.68412103  0.79013571    -0.71500
O4896       O  0.90796122  0.65368003  0.78709474    -0.50200
C4897       C  0.92154354  0.67226129  0.80226245     0.74700
O4898       O  0.52451971  0.55740460  0.79298018    -0.66900
O4899       O  0.55349033  0.57963821  0.76152081    -0.54100
C4900       C  0.54878898  0.56250252  0.78238670     0.73100
Zr4901     Zr  0.97693743  0.57625364  0.78104860     2.77500
O4902       O  0.97602507  0.57480930  0.83552553    -0.97600
O4903       O  0.97551725  0.52449474  0.77670252    -0.78400
Zr4904     Zr  0.98661369  0.66300371  0.78842615     2.70100
O4905       O  0.98267482  0.67719476  0.84094623    -0.79700
O4906       O  0.00809091  0.70970065  0.78878910    -0.98800
Zr4907     Zr  0.52825632  0.61589055  0.73987641     2.21500
Zr4908     Zr  0.92879097  0.63036252  0.74319253     2.11100
O4909       O  0.95653746  0.62275745  0.78699138    -2.47400
O4910       O  0.50349612  0.61366036  0.78418890    -0.79500
O4911       O  0.94898843  0.58373110  0.73819598    -0.71700
O4912       O  0.51180181  0.66304053  0.74677454    -2.32600
O4913       O  0.50033887  0.57414399  0.73667474    -2.28800
O4914       O  0.95787756  0.67098789  0.74622863    -0.73400
H4915       H  0.94265578  0.62856850  0.68014702     0.78600
H4916       H  0.52658129  0.67650648  0.74826161     0.79700
H4917       H  0.94588692  0.62239523  0.80505965     0.81900
H4918       H  0.51080921  0.55676446  0.73434961     0.79500
H4919       H  0.02040566  0.71620059  0.70736412     0.42500
H4920       H  0.99452871  0.72263959  0.79826402     0.41500
H4921       H  0.97664894  0.65975282  0.85100862     0.41200
H4922       H  0.97989119  0.59463851  0.84223113     0.39100
H4923       H  0.97179852  0.51817470  0.79727722     0.42200
H4924       H  0.45502674  0.52473697  0.67855955     0.37000
H4925       H  0.45905958  0.60166537  0.63584478     0.43100
H4926       H  0.98980421  0.68843504  0.64061378     0.39600
H4927       H  0.95663533  0.57197823  0.84047277     0.44500
H4928       H  0.98428061  0.52369271  0.70301354     0.43200
H4929       H  0.96840647  0.70899375  0.65591993     0.43300
H4930       H  0.02298226  0.70834353  0.80378402     0.43700
O4931       O  0.51172058  0.79731739  0.67781094    -0.75200
O4932       O  0.54585893  0.82737034  0.68554635    -0.54100
C4933       C  0.53116765  0.81206786  0.66765707     0.77400
O4934       O  0.92787280  0.92248503  0.69517487    -0.59800
O4935       O  0.90069224  0.89672524  0.72567166    -0.52800
C4936       C  0.90414912  0.91565549  0.70610652     0.70600
O4937       O  0.52559672  0.91555611  0.68432020    -0.74300
O4938       O  0.55402533  0.88189376  0.70340031    -0.54900
C4939       C  0.54979472  0.90464355  0.68878699     0.76600
O4940       O  0.92170271  0.80889245  0.70209539    -0.59500
O4941       O  0.89518440  0.84552167  0.71090064    -0.52600
C4942       C  0.90308643  0.82560593  0.69299783     0.73200
Zr4943     Zr  0.96821000  0.82029331  0.69116252     2.54700
O4944       O  0.95720936  0.83737077  0.64129239    -0.80000
O4945       O  0.95830791  0.77445038  0.66665739    -0.93500
Zr4946     Zr  0.97746299  0.90649452  0.70076361     2.64700
O4947       O  0.97207353  0.91478425  0.64738151    -0.98400
O4948       O  0.98106032  0.95745279  0.71149762    -0.80500
O4949       O  0.49734636  0.85682382  0.69063818    -0.83800
O4950       O  0.94869708  0.86591856  0.70072982    -2.18500
O4951       O  0.94003699  0.81254481  0.81203177    -0.67200
O4952       O  0.90703001  0.84217008  0.79447316    -0.51800
C4953       C  0.91815954  0.82734808  0.81552397     0.71500
O4954       O  0.53881432  0.89849309  0.79540214    -0.60100
O4955       O  0.56221597  0.87456823  0.75864763    -0.52100
C4956       C  0.56129052  0.89034326  0.78225653     0.73400
O4957       O  0.94384064  0.91687317  0.80718093    -0.71500
O4958       O  0.90849091  0.89545805  0.78192062    -0.50200
C4959       C  0.91798051  0.91296153  0.80128268     0.74700
O4960       O  0.52208509  0.79181087  0.78172396    -0.66900
O4961       O  0.55114623  0.82706280  0.77432356    -0.54100
C4962       C  0.54141096  0.80763260  0.79090469     0.73100
Zr4963     Zr  0.97816889  0.81171654  0.77780745     2.77500
O4964       O  0.98990996  0.78705867  0.82378902    -0.97600
O4965       O  0.96012634  0.76630007  0.75956387    -0.78400
Zr4966     Zr  0.98923099  0.89791300  0.78777389     2.70100
O4967       O  0.99533866  0.89679854  0.84194634    -0.79700
O4968       O  0.99620693  0.94932740  0.78799581    -0.98800
Zr4969     Zr  0.52796539  0.84951759  0.73163445     2.21500
Zr4970     Zr  0.92803636  0.86249348  0.74903662     2.11100
O4971       O  0.96053055  0.85810792  0.78861678    -2.47400
O4972       O  0.50182172  0.85095835  0.77323945    -0.79500
O4973       O  0.94602560  0.81613773  0.73868924    -0.71700
O4974       O  0.50860179  0.89634582  0.73845802    -2.32600
O4975       O  0.49912579  0.80826750  0.73080193    -2.28800
O4976       O  0.95678112  0.90405001  0.74874584    -0.73400
H4977       H  0.93518846  0.86923538  0.68540024     0.78600
H4978       H  0.52211390  0.91119951  0.73913607     0.79700
H4979       H  0.95351041  0.86076353  0.80850704     0.81900
H4980       H  0.50894531  0.79042860  0.72884113     0.79500
H4981       H  0.48451099  0.95850854  0.72340943     0.42500
H4982       H  0.00527196  0.95359231  0.80746406     0.41500
H4983       H  0.97987018  0.88549567  0.84919358     0.41200
H4984       H  0.98550843  0.80056502  0.84039643     0.39100
H4985       H  0.94479093  0.76231774  0.77307652     0.42200
H4986       H  0.97554994  0.76345800  0.66668464     0.37000
H4987       H  0.46505797  0.84809685  0.63647202     0.43100
H4988       H  0.95420469  0.90635180  0.64201133     0.39600
H4989       H  0.97630164  0.77166868  0.82527050     0.44500
H4990       H  0.95474058  0.77857896  0.64534658     0.43200
H4991       H  0.96908015  0.93561143  0.64610484     0.43300
H4992       H  0.01046889  0.95256349  0.77294067     0.43700
C4993       C  0.83883040  0.93467519  0.82890896    -0.05300
C4994       C  0.85050404  0.94823517  0.80452892    -0.32800
C4995       C  0.87844401  0.94532366  0.79835963     0.36500
C4996       C  0.89551481  0.92832149  0.81644544    -0.05700
C4997       C  0.88395600  0.91546529  0.84140530    -0.32700
C4998       C  0.85610120  0.91886133  0.84787627     0.36400
H4999       H  0.83802277  0.96177963  0.79055724     0.16800
O5000       O  0.88886081  0.95804920  0.77357767    -0.60200
H5001       H  0.89614389  0.90112644  0.85479710     0.16800
O5002       O  0.84595001  0.90666668  0.87297341    -0.60300
H5003       H  0.84225098  0.88657974  0.86696933     0.43800
H5004       H  0.87989656  0.94851938  0.75613673     0.43700
C5005       C  0.64243215  0.90900404  0.81658459    -0.05300
C5006       C  0.62031657  0.90487465  0.83612325    -0.32800
C5007       C  0.59375794  0.90005601  0.82548220     0.36500
C5008       C  0.58864546  0.89825030  0.79458217    -0.05700
C5009       C  0.61099678  0.90063711  0.77490021    -0.32700
C5010       C  0.63756443  0.90619915  0.78565675     0.36400
H5011       H  0.62330297  0.90760253  0.86001009     0.16800
O5012       O  0.57310112  0.89663247  0.84554151    -0.60200
H5013       H  0.60776054  0.89884695  0.75089816     0.16800
O5014       O  0.65824093  0.91022827  0.76576608    -0.60300
H5015       H  0.65599739  0.93008839  0.75895629     0.43800
H5016       H  0.56796659  0.91620634  0.85223612     0.43700
C5017       C  0.87817962  0.55962812  0.78898378    -0.05300
C5018       C  0.85310915  0.57216116  0.77993098    -0.32800
C5019       C  0.82790358  0.56141014  0.78877265     0.36500
C5020       C  0.82713244  0.53776675  0.80731417    -0.05700
C5021       C  0.85202672  0.52400716  0.81456553    -0.32700
C5022       C  0.87723449  0.53461954  0.80561001     0.36400
H5023       H  0.85278412  0.59108545  0.76647176     0.16800
O5024       O  0.80443045  0.57563430  0.78126246    -0.60200
H5025       H  0.85214776  0.50544939  0.82855186     0.16800
O5026       O  0.90065694  0.52062746  0.81376886    -0.60300
H5027       H  0.90408598  0.52647748  0.83493793     0.43800
H5028       H  0.80177973  0.57189816  0.75948985     0.43700
C5029       C  0.62907645  0.53020785  0.80475850    -0.05300
C5030       C  0.60654005  0.51130982  0.80264981    -0.32800
C5031       C  0.57979384  0.52114517  0.79707759     0.36500
C5032       C  0.57484041  0.55042754  0.79431774    -0.05700
C5033       C  0.59752193  0.56902933  0.79592728    -0.32700
C5034       C  0.62418304  0.55919579  0.80035740     0.36400
H5035       H  0.60965225  0.48868916  0.80584417     0.16800
O5036       O  0.55897266  0.50195547  0.79380357    -0.60200
H5037       H  0.59474662  0.59161879  0.79261484     0.16800
O5038       O  0.64508784  0.57839735  0.80151408    -0.60300
H5039       H  0.65243671  0.57850206  0.78090044     0.43800
H5040       H  0.55686449  0.49874157  0.77187438     0.43700
C5041       C  0.82503080  0.95148637  0.68181504    -0.05300
C5042       C  0.84932976  0.96759186  0.67874896    -0.32800
C5043       C  0.87521596  0.95649236  0.68574678     0.36500
C5044       C  0.87763300  0.92871478  0.69628721    -0.05700
C5045       C  0.85326703  0.91303212  0.70041864    -0.32700
C5046       C  0.82740358  0.92412306  0.69345789     0.36400
H5047       H  0.84851271  0.98883301  0.66973103     0.16800
O5048       O  0.89788069  0.97291665  0.68192342    -0.60200
H5049       H  0.85415534  0.89152647  0.70871604     0.16800
O5050       O  0.80484099  0.90745035  0.69685343    -0.60300
H5051       H  0.80292499  0.89650519  0.67770638     0.43800
H5052       H  0.89780398  0.98693221  0.69887531     0.43700
C5053       C  0.62712966  0.94200392  0.66163074    -0.05300
C5054       C  0.60245993  0.95770792  0.65894876    -0.32800
C5055       C  0.57704571  0.94616038  0.66695336     0.36500
C5056       C  0.57566186  0.91831792  0.67804111    -0.05700
C5057       C  0.60053714  0.90299341  0.68097801    -0.32700
C5058       C  0.62573413  0.91446205  0.67299678     0.36400
H5059       H  0.60280363  0.97908513  0.65024221     0.16800
O5060       O  0.55394787  0.96249916  0.66432909    -0.60200
H5061       H  0.60071185  0.88151452  0.68936876     0.16800
O5062       O  0.64876957  0.89801778  0.67546877    -0.60300
H5063       H  0.64957186  0.88660947  0.65652968     0.43800
H5064       H  0.54853751  0.96078493  0.64291685     0.43700
C5065       C  0.87362894  0.57542925  0.68129943    -0.05300
C5066       C  0.85780345  0.55806776  0.69955568    -0.32800
C5067       C  0.82996863  0.55376249  0.69352662     0.36500
C5068       C  0.81723918  0.56725316  0.66920739    -0.05700
C5069       C  0.83286448  0.58555446  0.65174502    -0.32700
C5070       C  0.86067732  0.58986234  0.65778105     0.36400
H5071       H  0.86701477  0.54814362  0.71888491     0.16800
O5072       O  0.81541200  0.53573725  0.71104971    -0.60200
H5073       H  0.82380015  0.59526495  0.63220719     0.16800
O5074       O  0.87487474  0.60893383  0.64117549    -0.60300
H5075       H  0.87994872  0.59835859  0.62257217     0.43800
H5076       H  0.82018652  0.51622670  0.70393041     0.43700
C5077       C  0.62211748  0.55030071  0.64871257    -0.05300
C5078       C  0.61717012  0.54527461  0.67887225    -0.32800
C5079       C  0.59068089  0.54703201  0.69021019     0.36500
C5080       C  0.56842295  0.55472907  0.67148915    -0.05700
C5081       C  0.57310431  0.55781148  0.64091355    -0.32700
C5082       C  0.59959041  0.55550193  0.62945759     0.36400
H5083       H  0.63374557  0.53897792  0.69353939     0.16800
O5084       O  0.58658072  0.54151797  0.71991308    -0.60200
H5085       H  0.55652112  0.56321855  0.62599519     0.16800
O5086       O  0.60337875  0.55890779  0.59934770    -0.60300
H5087       H  0.59685929  0.54097185  0.58963815     0.43800
H5088       H  0.59681666  0.55642072  0.73128417     0.43700
C5089       C  0.81235395  0.84850617  0.57184428    -0.05300
C5090       C  0.82675340  0.86607534  0.59249305    -0.32800
C5091       C  0.82367761  0.89609561  0.59270813     0.36500
C5092       C  0.80668976  0.90920604  0.57126133    -0.05700
C5093       C  0.79202023  0.89120400  0.55145605    -0.32700
C5094       C  0.79333491  0.86154085  0.55289069     0.36400
H5095       H  0.84209145  0.85665186  0.60677125     0.16800
O5096       O  0.83881544  0.91226812  0.61248319    -0.60200
H5097       H  0.77927695  0.90005568  0.53436897     0.16800
O5098       O  0.77917215  0.84549938  0.53201600    -0.60300
H5099       H  0.76107857  0.84244891  0.54104418     0.43800
H5100       H  0.82729771  0.91432032  0.63048515     0.43700
C5101       C  0.83123381  0.64469730  0.55741312    -0.05300
C5102       C  0.84860181  0.62048112  0.55627738    -0.32800
C5103       C  0.83851130  0.59277739  0.56006700     0.36500
C5104       C  0.81061937  0.58889209  0.56475936    -0.05700
C5105       C  0.79387662  0.61330181  0.56864037    -0.32700
C5106       C  0.80387032  0.64086896  0.56498433     0.36400
H5107       H  0.86990778  0.62290555  0.55083870     0.16800
O5108       O  0.85556919  0.56976286  0.55658781    -0.60200
H5109       H  0.77239659  0.61093992  0.57328767     0.16800
O5110       O  0.78604683  0.66347087  0.56582436    -0.60300
H5111       H  0.78766467  0.67163653  0.58642672     0.43800
H5112       H  0.86447123  0.56751148  0.57641902     0.43700
C5113       C  0.80828084  0.91280246  0.93757812    -0.05300
C5114       C  0.80287081  0.89130230  0.91567777    -0.32800
C5115       C  0.80576363  0.86205823  0.92188629     0.36500
C5116       C  0.81486139  0.85357232  0.95029097    -0.05700
C5117       C  0.82146866  0.87534511  0.97164688    -0.32700
C5118       C  0.81782047  0.90437656  0.96568870     0.36400
H5119       H  0.79526989  0.89683210  0.89383563     0.16800
O5120       O  0.79901448  0.84211571  0.90023815    -0.60200
H5121       H  0.82918103  0.86997993  0.99359028     0.16800
O5122       O  0.82271756  0.92434892  0.98793889    -0.60300
H5123       H  0.84231000  0.92897998  0.98629733     0.43800
H5124       H  0.77884917  0.84112791  0.90049521     0.43700
C5125       C  0.80144987  0.59045570  0.92157829    -0.05300
C5126       C  0.78623422  0.61557649  0.91571555    -0.32800
C5127       C  0.79667193  0.64300059  0.92184254     0.36500
C5128       C  0.82283895  0.64603173  0.93432906    -0.05700
C5129       C  0.83859167  0.62083596  0.93837614    -0.32700
C5130       C  0.82830116  0.59350275  0.93176997     0.36400
H5131       H  0.76567049  0.61397565  0.90688452     0.16800
O5132       O  0.78073556  0.66646415  0.91646890    -0.60200
H5133       H  0.85900725  0.62210470  0.94764435     0.16800
O5134       O  0.84407990  0.56999384  0.93733332    -0.60300
H5135       H  0.85464315  0.56660112  0.91875363     0.43800
H5136       H  0.76881541  0.66856536  0.93420282     0.43700
C5137       C  0.90480244  0.83710539  0.91106448    -0.05300
C5138       C  0.88182314  0.83525849  0.89172695    -0.32800
C5139       C  0.88492387  0.83307516  0.86012162     0.36500
C5140       C  0.91122678  0.83272037  0.84777761    -0.05700
C5141       C  0.93354897  0.83769515  0.86726743    -0.32700
C5142       C  0.93058160  0.83964501  0.89826618     0.36400
H5143       H  0.86166077  0.83350169  0.90110220     0.16800
O5144       O  0.86247254  0.83020845  0.84186067    -0.60200
H5145       H  0.95396353  0.83917037  0.85847847     0.16800
O5146       O  0.95325266  0.84342718  0.91608897    -0.60300
H5147       H  0.96312503  0.82493844  0.91532478     0.43800
H5148       H  0.85506905  0.81107048  0.84592770     0.43700
C5149       C  0.89692641  0.82601356  0.66012476    -0.05300
C5150       C  0.89518748  0.85191663  0.64454327    -0.32800
C5151       C  0.89821610  0.85243793  0.61302110     0.36500
C5152       C  0.90255777  0.82686958  0.59662276    -0.05700
C5153       C  0.90219976  0.80109833  0.61217165    -0.32700
C5154       C  0.89897485  0.80048628  0.64321628     0.36400
H5155       H  0.89340939  0.87192992  0.65689497     0.16800
O5156       O  0.89819643  0.87802324  0.59878799    -0.60200
H5157       H  0.90436996  0.78097607  0.60017922     0.16800
O5158       O  0.89915478  0.77466280  0.65707218    -0.60300
H5159       H  0.88014080  0.76775511  0.65556650     0.43800
H5160       H  0.91754061  0.88396202  0.59859503     0.43700
C5161       C  0.91684477  0.67796964  0.83480834    -0.05300
C5162       C  0.90620914  0.65691703  0.85343124    -0.32800
C5163       C  0.90648111  0.66056978  0.88501243     0.36500
C5164       C  0.91858132  0.68501024  0.89845011    -0.05700
C5165       C  0.92941473  0.70555788  0.87950235    -0.32700
C5166       C  0.92759677  0.70285519  0.84841516     0.36400
H5167       H  0.89831165  0.63729990  0.84360641     0.16800
O5168       O  0.89575126  0.63977879  0.90239926    -0.60200
H5169       H  0.93893593  0.72458495  0.88870508     0.16800
O5170       O  0.93754744  0.72443768  0.83145599    -0.60300
H5171       H  0.92258087  0.73866444  0.83039895     0.43800
H5172       H  0.87596165  0.64000345  0.89789227     0.43700
C5173       C  0.91102010  0.67356437  0.58891666    -0.05300
C5174       C  0.88782845  0.67879425  0.60672303    -0.32800
C5175       C  0.88917333  0.67771636  0.63815705     0.36500
C5176       C  0.91387922  0.67075371  0.65222177    -0.05700
C5177       C  0.93621877  0.66284868  0.63412374    -0.32700
C5178       C  0.93500980  0.66439843  0.60287517     0.36400
H5179       H  0.86949582  0.68719448  0.59658812     0.16800
O5180       O  0.86705655  0.68594773  0.65482794    -0.60200
H5181       H  0.95537977  0.65686166  0.64424996     0.16800
O5182       O  0.95833160  0.66049872  0.58658495    -0.60300
H5183       H  0.95925514  0.63972703  0.58213838     0.43800
H5184       H  0.86686853  0.70708351  0.65446048     0.43700
C5185       C  0.65756124  0.88990376  0.91071731    -0.05300
C5186       C  0.62988925  0.88827428  0.91692062    -0.32800
C5187       C  0.61770695  0.86189657  0.92150870     0.36500
C5188       C  0.63340211  0.83626579  0.92104933    -0.05700
C5189       C  0.66066584  0.83770314  0.91249788    -0.32700
C5190       C  0.67264927  0.86414116  0.90691766     0.36400
H5191       H  0.61778047  0.90756222  0.91916229     0.16800
O5192       O  0.59041900  0.86163934  0.92758948    -0.60200
H5193       H  0.67306272  0.81854626  0.91145996     0.16800
O5194       O  0.69943908  0.86456403  0.89852789    -0.60300
H5195       H  0.69898273  0.86495070  0.87632864     0.43800
H5196       H  0.58154385  0.85747872  0.90799841     0.43700
C5197       C  0.63112061  0.62943886  0.92458329    -0.05300
C5198       C  0.64348110  0.62708510  0.89653830    -0.32800
C5199       C  0.64892941  0.60013723  0.88349324     0.36500
C5200       C  0.64224762  0.57480447  0.89858051    -0.05700
C5201       C  0.62717376  0.57711137  0.92474158    -0.32700
C5202       C  0.62142945  0.60390414  0.93771076     0.36400
H5203       H  0.65021016  0.64599850  0.88534588     0.16800
O5204       O  0.66267899  0.59862237  0.85688357    -0.60200
H5205       H  0.62209975  0.55811138  0.93685006     0.16800
O5206       O  0.60757566  0.60456349  0.96428250    -0.60300
H5207       H  0.58853812  0.59948460  0.95896770     0.43800
H5208       H  0.68150090  0.60494419  0.86158775     0.43700
C5209       C  0.65251506  0.90505645  0.54479828    -0.05300
C5210       C  0.64745570  0.88638191  0.56836649    -0.32800
C5211       C  0.64017231  0.85773146  0.56269125     0.36500
C5212       C  0.63767499  0.84734470  0.53301692    -0.05700
C5213       C  0.64236313  0.86628838  0.50947733    -0.32700
C5214       C  0.65001891  0.89466739  0.51515465     0.36400
H5215       H  0.65061784  0.89362681  0.59135100     0.16800
O5216       O  0.63581248  0.84004445  0.58620265    -0.60200
H5217       H  0.64022082  0.85892409  0.48639721     0.16800
O5218       O  0.65626888  0.91172804  0.49162539    -0.60300
H5219       H  0.63852665  0.91905931  0.48422590     0.43800
H5220       H  0.61935699  0.84767697  0.59632986     0.43700
C5221       C  0.66275063  0.58297436  0.54791265    -0.05300
C5222       C  0.65393874  0.59734744  0.57406816    -0.32800
C5223       C  0.64871928  0.62690497  0.57448254     0.36500
C5224       C  0.65398226  0.64314446  0.54904638    -0.05700
C5225       C  0.66517452  0.62910722  0.52385339    -0.32700
C5226       C  0.66863114  0.59938503  0.52265297     0.36400
H5227       H  0.65061966  0.58563948  0.59428322     0.16800
O5228       O  0.63771310  0.63961988  0.59953331    -0.60200
H5229       H  0.66809176  0.64083572  0.50346865     0.16800
O5230       O  0.67558397  0.58630998  0.49594863    -0.60300
H5231       H  0.69150761  0.59674601  0.48832814     0.43800
H5232       H  0.62087368  0.62887567  0.60368389     0.43700
C5233       C  0.54822493  0.80648637  0.82321076    -0.05300
C5234       C  0.54087051  0.82979295  0.84197269    -0.32800
C5235       C  0.53750436  0.82656821  0.87316556     0.36500
C5236       C  0.54145762  0.79963834  0.88575884    -0.05700
C5237       C  0.55024189  0.77686591  0.86706955    -0.32700
C5238       C  0.55357021  0.78007932  0.83626118     0.36400
H5239       H  0.53543253  0.84992575  0.83207641     0.16800
O5240       O  0.52751997  0.84872710  0.89050199    -0.60200
H5241       H  0.55405772  0.75606257  0.87629231     0.16800
O5242       O  0.56023091  0.75673941  0.81873672    -0.60300
H5243       H  0.58038866  0.75558602  0.81954959     0.43800
H5244       H  0.53851500  0.86568179  0.88577764     0.43700
C5245       C  0.53473130  0.81572967  0.57084471    -0.05300
C5246       C  0.55815362  0.82266320  0.58803210    -0.32800
C5247       C  0.55762536  0.82241464  0.61972840     0.36500
C5248       C  0.53380223  0.81386982  0.63445763    -0.05700
C5249       C  0.51046745  0.80830269  0.61699352    -0.32700
C5250       C  0.51034222  0.81082083  0.58598807     0.36400
H5251       H  0.57728723  0.82624318  0.57691416     0.16800
O5252       O  0.58099047  0.82801538  0.63576184    -0.60200
H5253       H  0.49211441  0.80107927  0.62730021     0.16800
O5254       O  0.48667205  0.80549763  0.57042707    -0.60300
H5255       H  0.47856636  0.82453888  0.56688079     0.43800
H5256       H  0.58134950  0.84903947  0.63847591     0.43700
C5257       C  0.56942222  0.64226945  0.89564139    -0.05300
C5258       C  0.55628545  0.61668581  0.88848309    -0.32800
C5259       C  0.55440106  0.60763219  0.85839399     0.36500
C5260       C  0.56536539  0.62474378  0.83577287    -0.05700
C5261       C  0.58367411  0.64596683  0.84371182    -0.32700
C5262       C  0.58476278  0.65583698  0.87332815     0.36400
H5263       H  0.54457380  0.60594103  0.90526721     0.16800
O5264       O  0.53741950  0.58549263  0.85084322    -0.60200
H5265       H  0.59238735  0.65898143  0.82648613     0.16800
O5266       O  0.59662708  0.68175831  0.87917360    -0.60300
H5267       H  0.61521092  0.68052711  0.87068868     0.43800
H5268       H  0.54813871  0.56800657  0.85491273     0.43700
C5269       C  0.56818512  0.65664034  0.58885115    -0.05300
C5270       C  0.55280873  0.63268029  0.59493939    -0.32800
C5271       C  0.54750641  0.62615616  0.62462130     0.36500
C5272       C  0.55915252  0.64262031  0.64822979    -0.05700
C5273       C  0.57819213  0.66351487  0.64196891    -0.32700
C5274       C  0.58240725  0.67101843  0.61231489     0.36400
H5275       H  0.54157327  0.62181817  0.57713099     0.16800
O5276       O  0.52754913  0.60675442  0.63039139    -0.60200
H5277       H  0.58666583  0.67672621  0.65990892     0.16800
O5278       O  0.59739812  0.69488671  0.60667607    -0.60300
H5279       H  0.61668297  0.68918317  0.60945401     0.43800
H5280       H  0.51012341  0.61656374  0.62577420     0.43700
loop_ 
_geom_bond_atom_site_label_1 
_geom_bond_atom_site_label_2 
_geom_bond_distance 
_geom_bond_site_symmetry_2 
_ccdc_geom_bond_type 
O1          Zr13   2.530       .  S
O1            C3   1.304       .  A
O2         Zr699   2.349   1_554  S
O2            C3   1.272       .  A
C3          C604   1.476       .  S
O4          Zr16   2.434       .  S
O4            C6   1.278       .  A
O5          Zr40   2.449   1_554  S
O5            C6   1.283       .  A
C6          C625   1.489       .  S
O7          Zr16   2.405       .  S
O7            C9   1.281       .  A
O8         Zr699   2.439   1_554  S
O8            C9   1.286       .  A
C9          C649   1.463       .  S
O10         Zr13   2.518       .  S
O10          C12   1.302       .  A
O11         Zr40   2.358   1_554  S
O11          C12   1.274       .  A
C12         C592   1.479       .  S
Zr13         O14   2.434       .  S
Zr13         O15   2.435       .  S
Zr13         O19   2.360       .  S
Zr13         O20   2.383       .  S
Zr13        O703   2.374   1_554  S
Zr13        O705   2.377   1_554  S
O14          H57   0.990       .  S
O15          H56   0.990       .  S
O15          H60   0.990       .  S
Zr16         O17   2.436       .  S
Zr16         O18   2.436   1_455  S
Zr16         O20   2.387       .  S
Zr16         O19   2.363       .  S
Zr16         O44   2.389   1_554  S
Zr16         O46   2.392   1_554  S
O17          H58   0.990       .  S
O17          H61   0.988       .  S
O18          H51   0.990       .  S
O19        Zr699   2.351   1_554  S
O20         Zr40   2.389   1_554  S
O20          H47   0.965       .  S
O21         Zr33   2.518       .  S
O21          C23   1.303       .  A
O22        Zr700   2.341       .  S
O22          C23   1.271       .  A
C23         C568   1.485       .  S
O24         Zr36   2.406       .  S
O24          C26   1.281       .  A
O25         Zr39   2.461       .  S
O25          C26   1.289       .  A
C26         C637   1.467       .  S
O27         Zr36   2.432       .  S
O27          C29   1.279       .  A
O28        Zr700   2.469       .  S
O28          C29   1.290       .  A
C29         C616   1.489       .  S
O30         Zr33   2.539       .  S
O30          C32   1.305       .  A
O31         Zr39   2.348       .  S
O31          C32   1.265       .  A
C32         C577   1.503       .  S
Zr33         O34   2.437       .  S
Zr33         O35   2.434       .  S
Zr33         O41   2.378       .  S
Zr33         O42   2.358       .  S
Zr33         O45   2.366       .  S
Zr33         O43   2.380       .  S
O34          H54   0.990       .  S
O34          H59   0.990       .  S
O35          H55   0.990       .  S
Zr36         O37   2.444       .  S
Zr36         O38   2.439   1_455  S
Zr36         O42   2.368       .  S
Zr36         O41   2.390       .  S
Zr36        O706   2.375       .  S
Zr36        O704   2.387       .  S
O37          H53   0.990       .  S
O38          H52   0.989       .  S
O38          H62   0.989       .  S
Zr39        O662   2.355       .  S
Zr39        O668   2.430       .  S
Zr39         O42   2.352       .  S
Zr39         O45   2.407       .  S
Zr39        O704   2.375       .  S
Zr39        O679   2.236       .  S
Zr40        O682   2.334       .  S
Zr40        O688   2.453       .  S
Zr40         O46   2.376       .  S
Zr40        O701   2.382       .  S
Zr40        O703   2.404       .  S
O41        Zr700   2.380       .  S
O41          H49   0.963       .  S
O43        Zr673   2.375       .  S
O43        Zr700   2.407       .  S
O44        Zr696   2.384       .  S
O44        Zr699   2.376       .  S
O44          H48   0.965       .  S
O45        Zr673   2.369       .  S
O45          H50   0.966       .  S
O46        Zr696   2.373       .  S
O63         Zr75   2.412       .  S
O63          C65   1.281       .  A
O64        Zr761   2.472   1_554  S
O64          C65   1.294       .  A
C65         C553   1.472       .  S
O66         Zr78   2.553       .  S
O66          C68   1.310       .  A
O67        Zr762   2.333       .  S
O67          C68   1.274       .  A
C68         C469   1.476       .  S
O69         Zr78   2.536       .  S
O69          C71   1.308       .  A
O70        Zr101   2.376       .  S
O70         C731   1.278       .  A
C71         O730   1.277       .  A
C71         C481   1.497       .  S
O72         Zr75   2.434       .  S
O72          C74   1.277       .  A
O73        Zr762   2.481       .  S
O73          C74   1.290       .  A
C74         C532   1.499       .  S
Zr75         O76   2.442       .  S
Zr75         O77   2.432       .  S
Zr75         O81   2.365       .  S
Zr75         O82   2.376       .  S
Zr75        O765   2.364   1_554  S
Zr75        O767   2.374   1_554  S
O76         H119   0.990       .  S
O77         H118   0.987       .  S
O77         H122   0.990       .  S
Zr78         O79   2.436       .  S
Zr78         O80   2.435       .  S
Zr78         O82   2.361       .  S
Zr78         O81   2.359       .  S
Zr78        O766   2.379   1_554  S
Zr78        O768   2.369       .  S
O79         H120   0.990       .  S
O79         H123   0.990       .  S
O80         H113   0.990       .  S
O81        Zr761   2.348   1_554  S
O82        Zr762   2.374       .  S
O82         H109   0.956       .  S
O83         Zr95   2.438       .  S
O83          C85   1.281       .  A
O84        Zr102   2.447       .  S
O84          C85   1.283       .  A
C85         C517   1.489       .  S
O86         Zr98   2.535       .  S
O86          C88   1.307       .  A
O87        Zr101   2.362       .  S
O87          C88   1.276       .  A
C88         C508   1.500       .  S
O89         Zr98   2.524       .  S
O89          C91   1.294       .  A
O90        Zr102   2.382       .  S
O90          C91   1.264       .  A
C91         C496   1.508       .  S
O92         Zr95   2.417       .  S
O92          C94   1.275       .  A
O93        Zr101   2.470       .  S
O93          C94   1.286       .  A
C94         C544   1.502       .  S
Zr95         O96   2.442       .  S
Zr95         O97   2.436       .  S
Zr95        O103   2.364       .  S
Zr95        O104   2.378       .  S
Zr95        O107   2.416       .  S
Zr95        O105   2.396       .  S
O96         H116   0.988       .  S
O96         H121   0.989       .  S
O97         H117   0.989       .  S
Zr98         O99   2.433       .  S
Zr98        O100   2.434       .  S
Zr98        O104   2.370       .  S
Zr98        O103   2.381       .  S
Zr98        O108   2.397       .  S
Zr98        O106   2.381       .  S
O99         H115   0.990       .  S
O100        H114   0.990       .  S
O100        H124   0.990       .  S
Zr101       O724   2.469       .  S
Zr101       O104   2.384       .  S
Zr101       O106   2.406       .  S
Zr101       O107   2.392       .  S
Zr101       O741   2.359       .  S
Zr102       O727   2.330       .  S
Zr102       O733   2.484       .  S
Zr102       O103   2.411       .  S
Zr102       O105   2.386       .  S
Zr102       O108   2.409       .  S
Zr102       O742   2.369       .  S
O103        H111   0.961       .  S
O105       Zr735   2.366       .  S
O106       Zr738   2.373       .  S
O106        H110   0.965       .  S
O107       Zr735   2.377       .  S
O107        H112   0.967       .  S
O108       Zr738   2.361       .  S
O125       Zr137   2.532       .  S
O125        C127   1.306       .  A
O126      Zr1483   2.348   1_545  S
O126        C127   1.274       .  A
C127        C457   1.478       .  S
O128       Zr140   2.412       .  S
O128        C130   1.280       .  A
O129       Zr164   2.477   1_545  S
O129        C130   1.294       .  A
C130        C484   1.488       .  S
O131       Zr140   2.396       .  S
O131        C133   1.271       .  A
O132      Zr1483   2.471   1_545  S
O132        C133   1.288       .  A
C133        C601   1.494       .  S
O134       Zr137   2.530       .  S
O134        C136   1.305       .  A
O135       Zr164   2.330   1_545  S
O135        C136   1.269       .  A
C136        C448   1.469       .  S
Zr137       O138   2.435       .  S
Zr137       O139   2.438       .  S
Zr137       O144   2.360       .  S
Zr137       O167   2.372       .  S
Zr137      O1489   2.364   1_545  S
Zr137       O143   2.284       .  S
O138        H181   0.990       .  S
O139        H180   0.990       .  S
O139        H184   0.990       .  S
Zr140       O141   2.439       .  S
Zr140       O142   2.432       .  S
Zr140       O144   2.375       .  S
Zr140       O168   2.396   1_545  S
Zr140       O170   2.354   1_545  S
Zr140       O143   2.287       .  S
O141        H182   0.990       .  S
O141        H185   0.991       .  S
O142        H175   0.990       .  S
O143      Zr1483   2.255   1_545  S
O144       Zr164   2.386   1_545  S
O144        H171   0.961       .  S
O145       Zr157   2.551       .  S
O145        C147   1.311       .  A
O146      Zr1484   2.344       .  S
O146        C147   1.272       .  A
C147        C421   1.498       .  S
O148       Zr160   2.390       .  S
O148        C150   1.276       .  A
O149       Zr163   2.460       .  S
O149        C150   1.291       .  A
C150        C589   1.474       .  S
O151       Zr160   2.408       .  S
O151        C153   1.272       .  A
O152      Zr1484   2.476       .  S
O152        C153   1.285       .  A
C153        C472   1.507       .  S
O154       Zr157   2.540       .  S
O154        C156   1.309       .  A
O155       Zr163   2.374       .  S
O155        C156   1.277       .  A
C156        C433   1.502       .  S
Zr157       O158   2.436       .  S
Zr157       O159   2.435       .  S
Zr157       O165   2.366       .  S
Zr157       O166   2.389       .  S
Zr157       O169   2.371       .  S
Zr157      O1487   2.377       .  S
O158        H178   0.990       .  S
O158        H183   0.990       .  S
O159        H179   0.990       .  S
Zr160       O161   2.438       .  S
Zr160       O162   2.424       .  S
Zr160       O166   2.367       .  S
Zr160       O165   2.367       .  S
Zr160      O1490   2.401       .  S
Zr160      O1488   2.387       .  S
O161        H177   0.990       .  S
O162        H176   0.988       .  S
O162        H186   0.990       .  S
Zr163      O1446   2.345       .  S
Zr163      O1452   2.476       .  S
Zr163       O166   2.372       .  S
Zr163       O169   2.408       .  S
Zr163      O1488   2.370       .  S
Zr163      O1463   2.252       .  S
Zr164      O1466   2.350       .  S
Zr164      O1472   2.465       .  S
Zr164       O167   2.414   1_565  S
Zr164       O170   2.377       .  S
Zr164      O1485   2.397       .  S
O165      Zr1484   2.404       .  S
O165        H173   0.964       .  S
O167      Zr1477   2.381   1_545  S
O168      Zr1480   2.392       .  S
O168      Zr1483   2.375       .  S
O168        H172   0.966       .  S
O169      Zr1457   2.357       .  S
O169        H174   0.965       .  S
O170      Zr1480   2.395       .  S
O187       Zr199   2.385       .  S
O187        C189   1.266       .  A
O188      Zr1545   2.505   1_545  S
O188        C189   1.294       .  A
C189        C580   1.489       .  S
O190       Zr202   2.510       .  S
O190        C192   1.302       .  A
O191      Zr1546   2.352   1_545  S
O191        C192   1.274       .  A
C192        C400   1.484       .  S
O193       Zr202   2.543       .  S
O193        C195   1.309       .  A
O194      Zr1545   2.339   1_545  S
O194        C195   1.271       .  A
C195        C409   1.492       .  S
O196       Zr199   2.397       .  S
O196        C198   1.278       .  A
O197      Zr1546   2.496   1_545  S
O197        C198   1.299       .  A
C198        C505   1.499       .  S
Zr199       O200   2.438       .  S
Zr199       O201   2.429       .  S
Zr199       O206   2.372       .  S
Zr199      O1549   2.382   1_545  S
Zr199      O1551   2.398   1_545  S
Zr199       O205   2.254       .  S
O200        H243   0.990       .  S
O201        H242   0.990       .  S
O201        H246   0.988       .  S
Zr202       O203   2.435       .  S
Zr202       O204   2.437       .  S
Zr202       O206   2.391       .  S
Zr202      O1550   2.364   1_545  S
Zr202      O1552   2.377   1_545  S
Zr202       O205   2.261       .  S
O203        H244   0.991       .  S
O203        H247   0.990       .  S
O204        H237   0.990       .  S
O205      Zr1545   2.236   1_545  S
O206      Zr1546   2.384   1_545  S
O206        H233   0.965       .  S
O207       Zr219   2.431       .  S
O207        C209   1.278       .  A
O208       Zr226   2.477       .  S
O208        C209   1.290       .  A
C209        C493   1.495       .  S
O210       Zr222   2.530       .  S
O210        C212   1.305       .  A
O211       Zr225   2.346       .  S
O211        C212   1.273       .  A
C212        C385   1.479       .  S
O213       Zr222   2.556       .  S
O213        C215   1.312       .  A
O214       Zr226   2.349       .  S
O214        C215   1.274       .  A
C215        C373   1.485       .  S
O216       Zr219   2.380       .  S
O216        C218   1.274       .  A
O217       Zr225   2.462       .  S
O217        C218   1.292       .  A
C218        C565   1.481       .  S
Zr219       O220   2.447       .  S
Zr219       O221   2.429       .  S
Zr219       O227   2.361       .  S
Zr219       O231   2.385       .  S
Zr219       O229   2.395       .  S
Zr219       O228   2.270       .  S
O220        H240   0.990       .  S
O220        H245   0.988       .  S
O221        H241   0.987       .  S
Zr222       O223   2.436       .  S
Zr222       O224   2.435       .  S
Zr222       O227   2.355       .  S
Zr222       O232   2.364       .  S
Zr222       O230   2.379       .  S
Zr222       O228   2.287       .  S
O223        H239   0.990       .  S
O224        H238   0.990       .  S
O224        H248   0.990       .  S
Zr225      O1508   2.498       .  S
Zr225      O1514   2.341       .  S
Zr225       O230   2.414       .  S
Zr225       O231   2.365       .  S
Zr225       O228   2.248       .  S
Zr225      O1525   2.237       .  S
Zr226      O1511   2.355       .  S
Zr226      O1517   2.496       .  S
Zr226       O227   2.389       .  S
Zr226       O229   2.374       .  S
Zr226       O232   2.423       .  S
Zr226      O1526   2.379       .  S
O227        H235   0.957       .  S
O229      Zr1519   2.381       .  S
O230      Zr1522   2.366       .  S
O230        H234   0.965       .  S
O231      Zr1519   2.395       .  S
O231        H236   0.965       .  S
O232      Zr1522   2.375       .  S
O249      Zr2901   2.531   1_455  S
O249        C251   1.304       .  A
O250       Zr287   2.334       .  S
O250        C251   1.269       .  A
C251        C460   1.481       .  S
O252       Zr264   2.429       .  S
O252        C254   1.274       .  A
O253       Zr288   2.460       .  S
O253        C254   1.284       .  A
C254        C556   1.488       .  S
O255      Zr2904   2.401   1_455  S
O255        C257   1.280       .  A
O256       Zr287   2.432       .  S
O256        C257   1.284       .  A
C257        C652   1.461       .  S
O258       Zr261   2.520       .  S
O258        C260   1.303       .  A
O259       Zr288   2.353       .  S
O259        C260   1.273       .  A
C260        C445   1.473       .  S
Zr261      O2889   2.522       .  S
Zr261       O262   2.435       .  S
Zr261       O263   2.438       .  S
Zr261       O268   2.363       .  S
Zr261       O291   2.371       .  S
Zr261      O2933   2.365       .  S
Zr261      O2907   2.289       .  S
O262       H2945   0.989       .  S
O263        H308   0.990       .  S
O263       H2944   0.990       .  S
Zr264      O2895   2.402       .  S
Zr264       O265   2.455       .  S
Zr264       O266   2.437       .  S
Zr264       O268   2.401       .  S
Zr264       O294   2.368       .  S
Zr264      O2932   2.388       .  S
Zr264      O2907   2.282       .  S
O265        H306   0.990       .  S
O265        H309   0.990       .  S
O266        H299   0.990       .  S
O267       Zr287   2.241   1_655  S
O267      Zr2901   2.290       .  S
O267      Zr2904   2.282       .  S
O268       Zr288   2.395       .  S
O268        H295   0.957       .  S
O269       Zr281   2.513       .  S
O269        C271   1.303       .  A
O270       Zr288   2.348       .  S
O270        C271   1.273       .  A
C271        C397   1.493       .  S
O272      Zr2924   2.400   1_455  S
O272        C274   1.280       .  A
O273       Zr287   2.441       .  S
O273        C274   1.286       .  A
C274        C640   1.457       .  S
O275       Zr284   2.410       .  S
O275        C277   1.270       .  A
O276       Zr288   2.458       .  S
O276        C277   1.281       .  A
C277        C541   1.493       .  S
O278      Zr2921   2.556   1_455  S
O278        C280   1.310       .  A
O279       Zr287   2.319       .  S
O279        C280   1.267       .  A
C280        C412   1.491       .  S
Zr281      O2918   2.560       .  S
Zr281       O282   2.434       .  S
Zr281       O283   2.435       .  S
Zr281       O289   2.402       .  S
Zr281       O291   2.379       .  S
Zr281      O2930   2.345       .  S
Zr281      O2933   2.373       .  S
O282        H302   0.990       .  S
O282        H307   0.990       .  S
O283        H303   0.990       .  S
Zr284      O2912   2.413       .  S
Zr284       O285   2.435       .  S
Zr284       O286   2.436       .  S
Zr284       O289   2.393       .  S
Zr284       O294   2.384       .  S
Zr284      O2930   2.349       .  S
Zr284      O2932   2.389       .  S
O285        H301   0.990       .  S
O286        H300   0.990       .  S
O286        H310   0.990       .  S
Zr287       O290   2.340       .  S
Zr287       O292   2.367       .  S
Zr287       O293   2.400       .  S
Zr288       O289   2.400       .  S
Zr288       O291   2.408       .  S
Zr288       O294   2.383       .  S
O289        H297   0.966       .  S
O290      Zr2921   2.345   1_455  S
O290      Zr2924   2.356   1_455  S
O292      Zr2904   2.384   1_455  S
O292      Zr2924   2.389   1_455  S
O292        H296   0.966       .  S
O293      Zr2901   2.368   1_455  S
O293      Zr2921   2.369   1_455  S
O293        H298   0.966       .  S
H304       O2903   0.990       .  S
H305       O2902   0.990       .  S
O311      Zr2963   2.423   1_455  S
O311        C313   1.274       .  A
O312       Zr349   2.450       .  S
O312        C313   1.281       .  A
C313        C628   1.492       .  S
O314       Zr326   2.549       .  S
O314        C316   1.310       .  A
O315       Zr350   2.353       .  S
O315        C316   1.274       .  A
C316        C424   1.497       .  S
O317      Zr2966   2.547   1_455  S
O317        C319   1.308       .  A
O318       Zr349   2.356       .  S
O318        C319   1.273       .  A
C319        C436   1.510       .  S
O320       Zr323   2.413       .  S
O320        C322   1.273       .  A
O321       Zr350   2.453       .  S
O321        C322   1.277       .  A
C322        C529   1.496       .  S
Zr323      O2951   2.414       .  S
Zr323       O324   2.438       .  S
Zr323       O325   2.444       .  S
Zr323       O330   2.373       .  S
Zr323       O353   2.405       .  S
Zr323      O2969   2.390       .  S
Zr323      O2995   2.408       .  S
O324       H3007   0.989       .  S
O325        H366   0.990       .  S
O325        H370   0.989       .  S
Zr326      O2957   2.551       .  S
Zr326       O327   2.435       .  S
Zr326       O328   2.436       .  S
Zr326       O330   2.373       .  S
Zr326       O356   2.385       .  S
Zr326      O2969   2.389       .  S
Zr326      O2994   2.381       .  S
O327        H368   0.990       .  S
O327        H371   0.990       .  S
O328       H3001   0.990       .  S
O329       Zr349   2.388   1_655  S
O329      Zr2963   2.386       .  S
O329      Zr2966   2.386       .  S
O330       Zr350   2.404       .  S
O330        H357   0.962       .  S
O331       Zr343   2.419       .  S
O331        C333   1.284       .  A
O332       Zr350   2.499       .  S
O332        C333   1.298       .  A
C333        C520   1.493       .  S
O334      Zr2986   2.520   1_455  S
O334        C336   1.303       .  A
O335       Zr349   2.366       .  S
O335        C336   1.275       .  A
C336        C388   1.484       .  S
O337       Zr346   2.543       .  S
O337        C339   1.307       .  A
O338       Zr350   2.326       .  S
O338        C339   1.268       .  A
C339        C376   1.477       .  S
O340      Zr2983   2.403   1_455  S
O340        C342   1.268       .  A
O341       Zr349   2.460       .  S
O341        C342   1.283       .  A
C342        C613   1.479       .  S
Zr343      O2980   2.403       .  S
Zr343       O344   2.444       .  S
Zr343       O345   2.434       .  S
Zr343       O351   2.384       .  S
Zr343       O353   2.353       .  S
Zr343      O2995   2.374       .  S
Zr343      O2992   2.300       .  S
O344        H364   0.990       .  S
O344        H369   0.990       .  S
O345        H365   0.990       .  S
Zr346      O2974   2.518       .  S
Zr346       O347   2.436       .  S
Zr346       O348   2.438       .  S
Zr346       O351   2.341       .  S
Zr346       O356   2.372       .  S
Zr346      O2994   2.364       .  S
Zr346      O2992   2.291       .  S
O347        H363   0.990       .  S
O348        H362   0.990       .  S
O348        H372   0.990       .  S
Zr349       O354   2.404       .  S
Zr349       O355   2.399   1_455  S
Zr349       O352   2.261       .  S
Zr350       O351   2.381       .  S
Zr350       O353   2.384       .  S
Zr350       O356   2.410       .  S
O351        H359   0.960       .  S
O352      Zr2983   2.300   1_455  S
O352      Zr2986   2.291   1_455  S
O354      Zr2966   2.379   1_455  S
O354      Zr2986   2.361   1_455  S
O354        H358   0.965       .  S
O355      Zr2963   2.402       .  S
O355      Zr2983   2.379       .  S
O355        H360   0.967   1_655  S
H361       O2968   0.990       .  S
H367       O2964   0.990       .  S
C373        C374   1.402       .  A
C373        C378   1.414       .  A
C374        C375   1.407       .  A
C374        H379   1.084       .  S
C375        C376   1.414       .  A
C375        O380   1.372       .  S
C376        C377   1.404       .  A
C377        C378   1.410       .  A
C377        H381   1.084       .  S
C378        O382   1.369       .  S
O380        H384   0.991       .  S
O382        H383   0.992       .  S
C385        C386   1.409       .  A
C385        C390   1.405       .  A
C386        C387   1.401       .  A
C386        H391   1.076       .  S
C387        C388   1.401       .  A
C387        O392   1.371       .  S
C388        C389   1.414       .  A
C389        C390   1.408       .  A
C389        H393   1.084       .  S
C390        O394   1.372       .  S
O392        H396   0.992       .  S
O394        H395   0.992       .  S
C397        C398   1.422       .  A
C397        C402   1.402       .  A
C398        C399   1.400       .  A
C398        H403   1.083       .  S
C399        C400   1.399       .  A
C399        O404   1.372       .  S
C400        C401   1.417       .  A
C401        C402   1.398       .  A
C401        H405   1.083       .  S
C402        O406   1.371       .  S
O404        H408   0.992       .  S
O406        H407   0.992       .  S
C409        C410   1.422       .  A
C409        C414   1.398       .  A
C410        C411   1.409       .  A
C410        H415   1.084   1_545  S
C411        C412   1.400       .  A
C411        O416   1.371       .  S
C412        C413   1.419       .  A
C413        C414   1.400       .  A
C413        H417   1.082       .  S
C414        O418   1.370       .  S
O416        H420   0.992       .  S
O418        H419   0.992       .  S
C421        C422   1.423       .  A
C421        C426   1.401       .  A
C422        C423   1.408       .  A
C422        H427   1.083       .  S
C423        C424   1.401       .  A
C423        O428   1.371       .  S
C424        C425   1.419       .  A
C425        C426   1.405       .  A
C425        H429   1.083       .  S
C426        O430   1.371       .  S
O428        H432   0.992       .  S
O430        H431   0.992       .  S
C433        C434   1.421       .  A
C433        C438   1.400       .  A
C434        C435   1.411       .  A
C434        H439   1.084       .  S
C435        C436   1.406       .  A
C435        O440   1.371       .  S
C436        C437   1.424       .  A
C437        C438   1.403       .  A
C437        H441   1.083       .  S
C438        O442   1.371       .  S
O440        H444   0.992       .  S
O442        H443   0.992       .  S
C445        C446   1.407       .  A
C445        C450   1.405       .  A
C446        C447   1.404       .  A
C446        H451   1.084       .  S
C447        C448   1.407       .  A
C447        O452   1.372       .  S
C448        C449   1.410       .  A
C449        C450   1.404       .  A
C449        H453   1.083       .  S
C450        O454   1.372       .  S
O452        H456   0.992       .  S
O454        H455   0.992       .  S
C457        C458   1.398       .  A
C457        C462   1.416       .  A
C458        C459   1.403       .  A
C458        H463   1.084       .  S
C459        C460   1.420       .  A
C459        O464   1.374       .  S
C460        C461   1.397       .  A
C461        C462   1.403       .  A
C461        H465   1.080       .  S
C462        O466   1.371       .  S
O464        H468   0.992       .  S
O466        H467   0.992       .  S
C469        C470   1.412       .  A
C469        C474   1.403       .  A
C470        C471   1.416       .  A
C470        H475   1.081       .  S
C471        C472   1.414       .  A
C471        O476   1.371       .  S
C472        C473   1.407       .  A
C473        C474   1.397       .  A
C473        H477   1.071       .  S
C474        O478   1.372       .  S
O476        H480   0.991       .  S
O478        H479   0.992       .  S
C481        C482   1.422       .  A
C481        C486   1.401       .  A
C482        C483   1.410       .  A
C482        H487   1.083       .  S
C483        C484   1.402       .  A
C483        O488   1.371       .  S
C484        C485   1.413       .  A
C485        C486   1.400       .  A
C485        H489   1.084       .  S
C486        O490   1.371       .  S
O488        H492   0.992       .  S
O490        H491   0.992       .  S
C493        C494   1.417       .  A
C493        C498   1.399       .  A
C494        C495   1.413       .  A
C494        H499   1.079       .  S
C495        C496   1.407       .  A
C495        O500   1.371       .  S
C496        C497   1.418       .  A
C497        C498   1.404       .  A
C497        H501   1.082       .  S
C498        O502   1.371       .  S
O500        H504   0.992       .  S
O502        H503   0.992       .  S
C505        C506   1.419       .  A
C505        C510   1.401       .  A
C506        C507   1.405       .  A
C506        H511   1.083       .  S
C507        C508   1.402       .  A
C507        O512   1.372       .  S
C508        C509   1.422       .  A
C509        C510   1.408       .  A
C509        H513   1.083       .  S
C510        O514   1.371       .  S
O512        H516   0.992       .  S
O514        H515   0.992       .  S
C517        C518   1.417       .  A
C517        C522   1.400       .  A
C518        C519   1.418       .  A
C518        H523   1.082       .  S
C519        C520   1.406       .  A
C519        O524   1.370       .  S
C520        C521   1.412       .  A
C521        C522   1.395       .  A
C521        H525   1.084       .  S
C522        O526   1.372       .  S
O524        H528   0.992       .  S
O526        H527   0.991       .  S
C529        C530   1.415       .  A
C529        C534   1.405       .  A
C530        C531   1.419       .  A
C530        H535   1.082       .  S
C531        C532   1.409       .  A
C531        O536   1.371       .  S
C532        C533   1.408       .  A
C533        C534   1.396       .  A
C533        H537   1.080       .  S
C534        O538   1.372       .  S
O536        H540   0.991       .  S
O538        H539   0.992       .  S
C541        C542   1.409       .  A
C541        C546   1.410       .  A
C542        C543   1.415       .  A
C542        H547   1.083       .  S
C543        C544   1.415       .  A
C543        O548   1.370       .  S
C544        C545   1.407       .  A
C545        C546   1.396       .  A
C545        H549   1.082       .  S
C546        O550   1.372       .  S
O548        H552   0.991       .  S
O550        H551   0.992       .  S
C553        C554   1.413       .  A
C553        C558   1.400       .  A
C554        C555   1.407       .  A
C554        H559   1.080       .  S
C555        C556   1.402       .  A
C555        O560   1.371       .  S
C556        C557   1.409       .  A
C557        C558   1.397       .  A
C557        H561   1.078       .  S
C558        O562   1.372       .  S
O560        H564   0.992       .  S
O562        H563   0.992       .  S
C565        C566   1.394       .  A
C565        C570   1.421       .  A
C566        C567   1.399       .  A
C566        H571   1.084       .  S
C567        C568   1.424       .  A
C567        O572   1.370       .  S
C568        C569   1.394       .  A
C569        C570   1.398       .  A
C569        H573   1.083       .  S
C570        O574   1.371       .  S
O572        H576   0.990       .  S
O574        H575   0.992       .  S
C577        C578   1.397       .  A
C577        C582   1.432       .  A
C578        C579   1.406       .  A
C578        H583   1.082       .  S
C579        C580   1.420       .  A
C579        O584   1.371       .  S
C580        C581   1.394       .  A
C581        C582   1.406       .  A
C581        H585   1.084       .  S
C582        O586   1.373       .  S
O584        H588   0.992       .  S
O586        H587   0.992       .  S
C589        C590   1.408       .  A
C589        C594   1.406       .  A
C590        C591   1.411       .  A
C590        H595   1.084       .  S
C591        C592   1.406       .  A
C591        O596   1.374       .  S
C592        C593   1.408       .  A
C593        C594   1.398       .  A
C593        H597   1.084   1_554  S
C594        O598   1.372   1_554  S
O596        H600   0.991       .  S
O598        H599   0.992       .  S
C601        C602   1.407       .  A
C601        C606   1.411       .  A
C602        C603   1.411       .  A
C602        H607   1.082       .  S
C603        C604   1.408       .  A
C603        O608   1.371       .  S
C604        C605   1.405       .  A
C605        C606   1.401       .  A
C605        H609   1.084       .  S
C606        O610   1.371   1_554  S
O608        H612   0.992       .  S
O610        H611   0.992       .  S
C613        C614   1.410       .  A
C613        C618   1.403       .  A
C614        C615   1.415       .  A
C614        H619   1.082       .  S
C615        C616   1.406       .  A
C615        O620   1.374       .  S
C616        C617   1.410       .  A
C617        C618   1.398       .  A
C617        H621   1.082       .  S
C618        O622   1.372       .  S
O620        H624   0.991       .  S
O622        H623   0.992       .  S
C625        C626   1.412       .  A
C625        C630   1.402       .  A
C626        C627   1.416       .  A
C626        H631   1.081       .  S
C627        C628   1.413       .  A
C627        O632   1.371       .  S
C628        C629   1.403       .  A
C629        C630   1.390       .  A
C629        H633   1.076   1_455  S
C630        O634   1.370   1_455  S
O632        H636   0.992       .  S
O634        H635   0.991       .  S
C637        C638   1.393       .  A
C637        C642   1.419       .  A
C638        C639   1.399       .  A
C638        H643   1.084       .  S
C639        C640   1.415       .  A
C639        O644   1.370       .  S
C640        C641   1.383       .  A
C641        C642   1.392       .  A
C641        H645   1.085       .  S
C642        O646   1.369       .  S
O644        H648   0.992       .  S
O646        H647   0.992       .  S
C649        C650   1.391       .  A
C649        C654   1.415       .  A
C650        C651   1.396       .  A
C650        H655   1.084       .  S
C651        C652   1.413       .  A
C651        O656   1.371       .  S
C652        C653   1.394       .  A
C653        C654   1.399       .  A
C653        H657   1.084       .  S
C654        O658   1.374       .  S
O656        H660   0.992       .  S
O658        H659   0.991       .  S
O661       Zr673   2.533       .  S
O661        C663   1.304       .  A
O662        C663   1.272       .  A
C663       C1264   1.480       .  S
O664       Zr676   2.433       .  S
O664        C666   1.278       .  A
O665       Zr700   2.439       .  S
O665        C666   1.282       .  A
C666       C1285   1.487       .  S
O667       Zr676   2.405       .  S
O667        C669   1.281       .  A
O668        C669   1.285       .  A
C669       C1309   1.462       .  S
O670       Zr673   2.513       .  S
O670        C672   1.301       .  A
O671       Zr700   2.367       .  S
O671        C672   1.276       .  A
C672       C1252   1.482       .  S
Zr673       O674   2.433       .  S
Zr673       O675   2.436       .  S
Zr673       O680   2.382       .  S
Zr673       O679   2.271       .  S
O674        H717   0.990       .  S
O675        H716   0.990       .  S
O675        H720   0.990       .  S
Zr676       O677   2.434       .  S
Zr676       O678   2.437   1_455  S
Zr676       O680   2.384       .  S
Zr676       O704   2.385       .  S
Zr676       O706   2.383       .  S
Zr676       O679   2.265       .  S
O677        H718   0.989       .  S
O677        H721   0.989       .  S
O678        H711   0.990       .  S
O680       Zr700   2.402       .  S
O680        H707   0.964       .  S
O681       Zr693   2.514       .  S
O681        C683   1.301       .  A
O682        C683   1.270       .  A
C683       C1228   1.480       .  S
O684       Zr696   2.401       .  S
O684        C686   1.279       .  A
O685       Zr699   2.455       .  S
O685        C686   1.289       .  A
C686       C1297   1.475       .  S
O687       Zr696   2.432       .  S
O687        C689   1.284       .  A
O688        C689   1.290       .  A
C689       C1276   1.476       .  S
O690       Zr693   2.526       .  S
O690        C692   1.303       .  A
O691       Zr699   2.351       .  S
O691        C692   1.267       .  A
C692       C1237   1.500       .  S
Zr693       O694   2.436       .  S
Zr693       O695   2.435       .  S
Zr693       O701   2.363       .  S
Zr693       O705   2.358       .  S
Zr693       O703   2.373       .  S
Zr693       O702   2.280       .  S
O694        H714   0.990       .  S
O694        H719   0.990       .  S
O695        H715   0.990       .  S
Zr696       O697   2.442       .  S
Zr696       O698   2.434   1_455  S
Zr696       O701   2.376       .  S
Zr696       O702   2.274       .  S
O697        H713   0.990       .  S
O698        H712   0.989       .  S
O698        H722   0.989       .  S
Zr699       O705   2.406       .  S
Zr699       O702   2.245       .  S
Zr700       O706   2.380       .  S
O701        H709   0.961       .  S
O704        H708   0.967       .  S
O705        H710   0.966       .  S
O723       Zr735   2.411       .  S
O723        C725   1.281       .  A
O724        C725   1.293       .  A
C725       C1213   1.473       .  S
O726       Zr738   2.555       .  S
O726        C728   1.310       .  A
O727        C728   1.273       .  A
C728       C1129   1.477       .  S
O729       Zr738   2.525       .  S
O729        C731   1.306       .  A
O730       Zr761   2.367   1_554  S
C731       C1141   1.495       .  S
O732       Zr735   2.434       .  S
O732        C734   1.277       .  A
O733        C734   1.290       .  A
C734       C1192   1.499       .  S
Zr735       O736   2.443       .  S
Zr735       O737   2.433       .  S
Zr735       O741   2.373       .  S
Zr735       O742   2.378       .  S
O736        H779   0.990       .  S
O737        H778   0.988       .  S
O737        H782   0.990       .  S
Zr738       O739   2.437       .  S
Zr738       O740   2.434       .  S
Zr738       O742   2.358       .  S
Zr738       O741   2.372       .  S
O739        H780   0.990       .  S
O739        H783   0.990       .  S
O740        H773   0.990       .  S
O742        H769   0.960       .  S
O743       Zr755   2.430       .  S
O743        C745   1.278       .  A
O744       Zr762   2.456   1_556  S
O744        C745   1.284       .  A
C745       C1177   1.492       .  S
O746       Zr758   2.538       .  S
O746        C748   1.307       .  A
O747       Zr761   2.349       .  S
O747        C748   1.273       .  A
C748       C1168   1.503       .  S
O749       Zr758   2.525       .  S
O749        C751   1.293       .  A
O750       Zr762   2.383   1_556  S
O750        C751   1.262       .  A
C751       C1156   1.511       .  S
O752       Zr755   2.411       .  S
O752        C754   1.274       .  A
O753       Zr761   2.466       .  S
O753        C754   1.286       .  A
C754       C1204   1.497       .  S
Zr755       O756   2.443       .  S
Zr755       O757   2.438       .  S
Zr755       O763   2.372       .  S
Zr755       O764   2.381       .  S
Zr755       O767   2.415       .  S
Zr755       O765   2.394       .  S
O756        H776   0.988       .  S
O756        H781   0.988       .  S
O757        H777   0.989       .  S
Zr758       O759   2.435       .  S
Zr758       O760   2.434       .  S
Zr758       O764   2.381       .  S
Zr758       O763   2.393       .  S
Zr758       O768   2.395   1_556  S
Zr758       O766   2.380       .  S
O759        H775   0.989       .  S
O760        H774   0.990       .  S
O760        H784   0.990       .  S
Zr761       O764   2.387       .  S
Zr761       O766   2.407       .  S
Zr761       O767   2.383       .  S
Zr762       O763   2.419   1_554  S
Zr762       O765   2.385   1_554  S
Zr762       O768   2.411       .  S
O763        H771   0.961       .  S
O766        H770   0.965       .  S
O767        H772   0.966       .  S
O785       Zr797   2.530       .  S
O785        C787   1.306       .  A
O786      Zr2143   2.350   1_545  S
O786        C787   1.274       .  A
C787       C1117   1.476       .  S
O788       Zr800   2.412       .  S
O788        C790   1.280       .  A
O789       Zr824   2.495   1_545  S
O789        C790   1.298       .  A
C790       C1144   1.496       .  S
O791       Zr800   2.395       .  S
O791        C793   1.271       .  A
O792      Zr2143   2.478   1_545  S
O792        C793   1.289       .  A
C793       C1261   1.497       .  S
O794       Zr797   2.518       .  S
O794        C796   1.303       .  A
O795       Zr824   2.346   1_545  S
O795        C796   1.272       .  A
C796       C1108   1.468       .  S
Zr797       O798   2.434       .  S
Zr797       O799   2.436       .  S
Zr797       O804   2.362       .  S
Zr797       O827   2.374       .  S
Zr797      O2149   2.358   1_545  S
Zr797       O803   2.280       .  S
O798        H841   0.990       .  S
O799        H840   0.990       .  S
O799        H844   0.990       .  S
Zr800       O801   2.438       .  S
Zr800       O802   2.432       .  S
Zr800       O804   2.376       .  S
Zr800       O828   2.394   1_545  S
Zr800       O830   2.355   1_545  S
Zr800       O803   2.284       .  S
O801        H842   0.990       .  S
O801        H845   0.990       .  S
O802        H835   0.990       .  S
O803      Zr2143   2.246   1_545  S
O804       Zr824   2.385   1_545  S
O804        H831   0.961       .  S
O805       Zr817   2.544       .  S
O805        C807   1.309       .  A
O806      Zr2144   2.351       .  S
O806        C807   1.274       .  A
C807       C1081   1.496       .  S
O808       Zr820   2.392       .  S
O808        C810   1.277       .  A
O809       Zr823   2.459       .  S
O809        C810   1.292       .  A
C810       C1249   1.472       .  S
O811       Zr820   2.407       .  S
O811        C813   1.271       .  A
O812      Zr2144   2.473       .  S
O812        C813   1.284       .  A
C813       C1132   1.506       .  S
O814       Zr817   2.533       .  S
O814        C816   1.307       .  A
O815       Zr823   2.380       .  S
O815        C816   1.278       .  A
C816       C1093   1.496       .  S
Zr817       O818   2.436       .  S
Zr817       O819   2.434       .  S
Zr817       O825   2.366       .  S
Zr817       O826   2.385       .  S
Zr817       O829   2.369       .  S
Zr817      O2147   2.378       .  S
O818        H838   0.990       .  S
O818        H843   0.990       .  S
O819        H839   0.990       .  S
Zr820       O821   2.436       .  S
Zr820       O822   2.427       .  S
Zr820       O826   2.366       .  S
Zr820       O825   2.369       .  S
Zr820      O2150   2.398       .  S
Zr820      O2148   2.391       .  S
O821        H837   0.990       .  S
O822        H836   0.989       .  S
O822        H846   0.990       .  S
Zr823      O2106   2.349       .  S
Zr823      O2112   2.481       .  S
Zr823       O826   2.372       .  S
Zr823      O2148   2.377       .  S
Zr823       O829   2.407       .  S
Zr823      O2123   2.251       .  S
Zr824      O2126   2.341       .  S
Zr824      O2132   2.488       .  S
Zr824      O2145   2.403       .  S
Zr824       O827   2.415   1_565  S
Zr824       O830   2.380       .  S
O825      Zr2144   2.404       .  S
O825        H833   0.964       .  S
O827      Zr2137   2.375   1_545  S
O828      Zr2140   2.392       .  S
O828      Zr2143   2.378       .  S
O828        H832   0.966       .  S
O829      Zr2117   2.357       .  S
O829        H834   0.965       .  S
O830      Zr2140   2.400       .  S
O847       Zr859   2.386       .  S
O847        C849   1.265       .  A
O848      Zr2205   2.505   1_545  S
O848        C849   1.296       .  A
C849       C1240   1.487       .  S
O850       Zr862   2.528       .  S
O850        C852   1.306       .  A
O851      Zr2206   2.350   1_545  S
O851        C852   1.274       .  A
C852       C1060   1.492       .  S
O853       Zr862   2.552       .  S
O853        C855   1.312       .  A
O854      Zr2205   2.339       .  S
O854        C855   1.271   1_565  A
C855       C1069   1.493       .  S
O856       Zr859   2.390       .  S
O856        C858   1.275       .  A
O857      Zr2206   2.488   1_545  S
O857        C858   1.298       .  A
C858       C1165   1.488       .  S
Zr859       O860   2.439       .  S
Zr859       O861   2.429       .  S
Zr859       O866   2.372       .  S
Zr859      O2209   2.379   1_545  S
Zr859      O2211   2.396   1_545  S
Zr859       O865   2.249       .  S
O860        H903   0.990       .  S
O861        H902   0.990       .  S
O861        H906   0.988       .  S
Zr862       O863   2.435       .  S
Zr862       O864   2.436       .  S
Zr862       O866   2.391       .  S
Zr862      O2210   2.365   1_545  S
Zr862      O2212   2.370   1_545  S
Zr862       O865   2.258       .  S
O863        H904   0.991       .  S
O863        H907   0.990       .  S
O864        H897   0.990   1_545  S
O865      Zr2205   2.240   1_545  S
O866      Zr2206   2.384   1_545  S
O866        H893   0.965       .  S
O867       Zr879   2.427       .  S
O867        C869   1.276       .  A
O868       Zr886   2.491       .  S
O868        C869   1.292       .  A
C869       C1153   1.502       .  S
O870       Zr882   2.541       .  S
O870        C872   1.308       .  A
O871       Zr885   2.339       .  S
O871        C872   1.273       .  A
C872       C1045   1.479       .  S
O873       Zr882   2.542       .  S
O873        C875   1.309       .  A
O874       Zr886   2.363       .  S
O874        C875   1.276       .  A
C875       C1033   1.484       .  S
O876       Zr879   2.396       .  S
O876        C878   1.277       .  A
O877       Zr885   2.467       .  S
O877        C878   1.294       .  A
C878       C1225   1.481       .  S
Zr879       O880   2.450       .  S
Zr879       O881   2.427       .  S
Zr879       O887   2.368       .  S
Zr879       O888   2.358       .  S
Zr879       O891   2.385       .  S
Zr879       O889   2.399       .  S
O880        H900   0.990       .  S
O880        H905   0.986       .  S
O881        H901   0.986       .  S
Zr882       O883   2.436       .  S
Zr882       O884   2.433       .  S
Zr882       O888   2.363       .  S
Zr882       O887   2.369       .  S
Zr882       O892   2.363       .  S
Zr882       O890   2.372       .  S
O883        H899   0.990       .  S
O884        H898   0.990       .  S
O884        H908   0.990       .  S
Zr885      O2168   2.500       .  S
Zr885      O2174   2.348       .  S
Zr885      O2185   2.357       .  S
Zr885       O888   2.354       .  S
Zr885       O890   2.418       .  S
Zr885       O891   2.364       .  S
Zr886      O2171   2.349       .  S
Zr886      O2177   2.510       .  S
Zr886      O2186   2.378       .  S
Zr886       O887   2.386       .  S
Zr886       O889   2.369       .  S
Zr886       O892   2.416       .  S
O887        H895   0.954       .  S
O889      Zr2179   2.389       .  S
O890      Zr2182   2.361       .  S
O890        H894   0.964       .  S
O891      Zr2179   2.389       .  S
O891        H896   0.965       .  S
O892      Zr2182   2.370       .  S
O909      Zr3561   2.531   1_455  S
O909        C911   1.304       .  A
O910       Zr947   2.326       .  S
O910        C911   1.268       .  A
C911       C1120   1.482       .  S
O912       Zr924   2.427       .  S
O912        C914   1.273       .  A
O913       Zr948   2.469       .  S
O913        C914   1.285       .  A
C914       C1216   1.490       .  S
O915      Zr3564   2.393   1_455  S
O915        C917   1.278       .  A
O916       Zr947   2.448       .  S
O916        C917   1.286       .  A
C917       C1312   1.459       .  S
O918       Zr921   2.526       .  S
O918        C920   1.304       .  A
O919       Zr948   2.351       .  S
O919        C920   1.272       .  A
C920       C1105   1.474       .  S
Zr921      O3549   2.523       .  S
Zr921       O922   2.435       .  S
Zr921       O923   2.437       .  S
Zr921       O928   2.362       .  S
Zr921       O951   2.368       .  S
Zr921      O3593   2.367       .  S
Zr921      O3567   2.289       .  S
O922       H3605   0.990       .  S
O923       H3604   0.990       .  S
O923        H968   0.990       .  S
Zr924      O3555   2.400       .  S
Zr924       O925   2.456       .  S
Zr924       O926   2.439       .  S
Zr924       O928   2.407       .  S
Zr924      O3592   2.388       .  S
Zr924       O954   2.372       .  S
Zr924      O3567   2.280       .  S
O925        H966   0.990       .  S
O925        H969   0.989       .  S
O926        H959   0.990       .  S
O927      Zr3561   2.371   1_455  S
O927      Zr3564   2.377   1_455  S
O927       Zr947   2.347       .  S
O928       Zr948   2.393       .  S
O928        H955   0.960       .  S
O929       Zr941   2.515       .  S
O929        C931   1.303       .  A
O930       Zr948   2.358       .  S
O930        C931   1.274       .  A
C931       C1057   1.497       .  S
O932      Zr3584   2.408   1_455  S
O932        C934   1.281       .  A
O933       Zr947   2.433       .  S
O933        C934   1.286       .  A
C934       C1300   1.463       .  S
O935       Zr944   2.412       .  S
O935        C937   1.270       .  A
O936       Zr948   2.449       .  S
O936        C937   1.279       .  A
C937       C1201   1.489       .  S
O938      Zr3581   2.547   1_455  S
O938        C940   1.308       .  A
O939       Zr947   2.335       .  S
O939        C940   1.270       .  A
C940       C1072   1.493       .  S
Zr941      O3578   2.562       .  S
Zr941       O942   2.435       .  S
Zr941       O943   2.434       .  S
Zr941       O949   2.408       .  S
Zr941      O3590   2.346       .  S
Zr941      O3593   2.369       .  S
Zr941       O951   2.376       .  S
O942        H962   0.990       .  S
O942        H967   0.990       .  S
O943        H963   0.990       .  S
Zr944      O3572   2.410       .  S
Zr944       O945   2.434       .  S
Zr944       O946   2.436       .  S
Zr944      O3590   2.351       .  S
Zr944       O949   2.398       .  S
Zr944       O954   2.383       .  S
Zr944      O3592   2.387       .  S
O945        H961   0.990       .  S
O946        H960   0.990       .  S
O946        H970   0.990       .  S
Zr947       O952   2.369       .  S
Zr947       O953   2.398       .  S
Zr947       O950   2.232       .  S
Zr948       O949   2.405       .  S
Zr948       O951   2.406       .  S
Zr948       O954   2.390       .  S
O949        H957   0.966       .  S
O950      Zr3581   2.262   1_455  S
O950      Zr3584   2.257   1_455  S
O952      Zr3564   2.389   1_455  S
O952      Zr3584   2.384   1_455  S
O952        H956   0.966       .  S
O953      Zr3561   2.367   1_455  S
O953      Zr3581   2.374   1_455  S
O953        H958   0.966       .  S
H964       O3563   0.990       .  S
H965       O3562   0.990       .  S
O971      Zr3623   2.410   1_455  S
O971        C973   1.272       .  A
O972      Zr1009   2.465       .  S
O972        C973   1.284       .  A
C973       C1288   1.496       .  S
O974       Zr986   2.548       .  S
O974        C976   1.309       .  A
O975      Zr1010   2.349       .  S
O975        C976   1.273       .  A
C976       C1084   1.497       .  S
O977      Zr3626   2.550   1_455  S
O977        C979   1.310       .  A
O978      Zr1009   2.361       .  S
O978        C979   1.275       .  A
C979       C1096   1.506       .  S
O980       Zr983   2.412       .  S
O980        C982   1.273       .  A
O981      Zr1010   2.446       .  S
O981        C982   1.275       .  A
C982       C1189   1.493       .  S
Zr983      O3611   2.415       .  S
Zr983       O984   2.437       .  S
Zr983       O985   2.444       .  S
Zr983       O990   2.368       .  S
Zr983      O1013   2.400       .  S
Zr983      O3655   2.400       .  S
Zr983      O3629   2.292       .  S
O984       H3667   0.988       .  S
O985       H1026   0.990       .  S
O985       H1030   0.989       .  S
Zr986      O3617   2.568       .  S
Zr986       O987   2.435       .  S
Zr986       O988   2.435       .  S
Zr986       O990   2.380       .  S
Zr986      O3654   2.370       .  S
Zr986      O1016   2.383       .  S
Zr986      O3629   2.290       .  S
O987       H1028   0.990       .  S
O987       H1031   0.989       .  S
O988       H3661   0.990       .  S
O989      Zr3623   2.391       .  S
O989      Zr3626   2.383       .  S
O989      Zr1009   2.385   1_655  S
O990      Zr1010   2.414       .  S
O990       H1017   0.962       .  S
O991      Zr1003   2.425       .  S
O991        C993   1.284       .  A
O992      Zr1010   2.497       .  S
O992        C993   1.297       .  A
C993       C1180   1.496       .  S
O994      Zr3646   2.521   1_455  S
O994        C996   1.304       .  A
O995      Zr1009   2.374       .  S
O995        C996   1.276       .  A
C996       C1048   1.485       .  S
O997      Zr1006   2.544       .  S
O997        C999   1.308       .  A
O998      Zr1010   2.328       .  S
O998        C999   1.269       .  A
C999       C1036   1.478       .  S
O1000     Zr3643   2.397   1_455  S
O1000      C1002   1.268       .  A
O1001     Zr1009   2.459       .  S
O1001      C1002   1.281       .  A
C1002      C1273   1.479       .  S
Zr1003     O3640   2.403       .  S
Zr1003     O1004   2.441       .  S
Zr1003     O1005   2.436       .  S
Zr1003     O1011   2.387       .  S
Zr1003     O3652   2.392       .  S
Zr1003     O3655   2.390       .  S
Zr1003     O1013   2.362       .  S
O1004      H1024   0.990       .  S
O1004      H1029   0.990       .  S
O1005      H1025   0.989       .  S
Zr1006     O3634   2.527       .  S
Zr1006     O1007   2.436       .  S
Zr1006     O1008   2.436       .  S
Zr1006     O3652   2.377       .  S
Zr1006     O1011   2.350       .  S
Zr1006     O1016   2.375       .  S
Zr1006     O3654   2.367       .  S
O1007      H1023   0.990       .  S
O1008      H1022   0.990       .  S
O1008      H1032   0.990       .  S
Zr1009     O1014   2.405       .  S
Zr1009     O1015   2.405   1_455  S
Zr1009     O1012   2.270       .  S
Zr1010     O1011   2.369       .  S
Zr1010     O1013   2.385       .  S
Zr1010     O1016   2.414       .  S
O1011      H1019   0.958       .  S
O1012     Zr3643   2.306   1_455  S
O1012     Zr3646   2.293   1_455  S
O1014     Zr3626   2.376   1_455  S
O1014     Zr3646   2.360   1_455  S
O1014      H1018   0.965       .  S
O1015     Zr3623   2.404       .  S
O1015     Zr3643   2.390       .  S
O1015      H1020   0.966   1_655  S
H1021      O3628   0.990       .  S
H1027      O3624   0.989       .  S
C1033      C1034   1.401       .  A
C1033      C1038   1.413       .  A
C1034      C1035   1.408       .  A
C1034      H1039   1.084       .  S
C1035      C1036   1.415       .  A
C1035      O1040   1.373       .  S
C1036      C1037   1.402       .  A
C1037      C1038   1.409       .  A
C1037      H1041   1.084       .  S
C1038      O1042   1.369       .  S
O1040      H1044   0.991       .  S
O1042      H1043   0.992       .  S
C1045      C1046   1.409       .  A
C1045      C1050   1.406       .  A
C1046      C1047   1.402       .  A
C1046      H1051   1.077       .  S
C1047      C1048   1.401       .  A
C1047      O1052   1.371       .  S
C1048      C1049   1.413       .  A
C1049      C1050   1.409       .  A
C1049      H1053   1.084       .  S
C1050      O1054   1.372       .  S
O1052      H1056   0.992       .  S
O1054      H1055   0.992       .  S
C1057      C1058   1.422       .  A
C1057      C1062   1.402       .  A
C1058      C1059   1.402       .  A
C1058      H1063   1.083       .  S
C1059      C1060   1.399       .  A
C1059      O1064   1.371       .  S
C1060      C1061   1.419       .  A
C1061      C1062   1.401       .  A
C1061      H1065   1.083       .  S
C1062      O1066   1.372       .  S
O1064      H1068   0.991       .  S
O1066      H1067   0.992       .  S
C1069      C1070   1.424       .  A
C1069      C1074   1.396       .  A
C1070      C1071   1.413       .  A
C1070      H1075   1.084   1_545  S
C1071      C1072   1.404       .  A
C1071      O1076   1.372       .  S
C1072      C1073   1.416       .  A
C1073      C1074   1.396       .  A
C1073      H1077   1.081       .  S
C1074      O1078   1.369       .  S
O1076      H1080   0.992   1_545  S
O1078      H1079   0.991       .  S
C1081      C1082   1.422       .  A
C1081      C1086   1.401       .  A
C1082      C1083   1.408       .  A
C1082      H1087   1.084       .  S
C1083      C1084   1.401       .  A
C1083      O1088   1.371       .  S
C1084      C1085   1.420       .  A
C1085      C1086   1.403       .  A
C1085      H1089   1.083       .  S
C1086      O1090   1.372       .  S
O1088      H1092   0.992       .  S
O1090      H1091   0.992       .  S
C1093      C1094   1.418       .  A
C1093      C1098   1.400       .  A
C1094      C1095   1.412       .  A
C1094      H1099   1.083       .  S
C1095      C1096   1.407       .  A
C1095      O1100   1.371       .  S
C1096      C1097   1.421       .  A
C1097      C1098   1.406       .  A
C1097      H1101   1.083       .  S
C1098      O1102   1.372       .  S
O1100      H1104   0.991       .  S
O1102      H1103   0.992       .  S
C1105      C1106   1.407       .  A
C1105      C1110   1.408       .  A
C1106      C1107   1.404       .  A
C1106      H1111   1.084       .  S
C1107      C1108   1.410       .  A
C1107      O1112   1.373       .  S
C1108      C1109   1.407       .  A
C1109      C1110   1.404       .  A
C1109      H1113   1.084       .  S
C1110      O1114   1.372       .  S
O1112      H1116   0.991       .  S
O1114      H1115   0.992       .  S
C1117      C1118   1.397       .  A
C1117      C1122   1.416       .  A
C1118      C1119   1.402       .  A
C1118      H1123   1.084       .  S
C1119      C1120   1.418       .  A
C1119      O1124   1.374       .  S
C1120      C1121   1.399       .  A
C1121      C1122   1.407       .  A
C1121      H1125   1.079       .  S
C1122      O1126   1.372       .  S
O1124      H1128   0.992       .  S
O1126      H1127   0.992       .  S
C1129      C1130   1.411       .  A
C1129      C1134   1.406       .  A
C1130      C1131   1.416       .  A
C1130      H1135   1.083       .  S
C1131      C1132   1.415       .  A
C1131      O1136   1.371       .  S
C1132      C1133   1.407       .  A
C1133      C1134   1.399       .  A
C1133      H1137   1.076       .  S
C1134      O1138   1.373       .  S
O1136      H1140   0.991       .  S
O1138      H1139   0.991       .  S
C1141      C1142   1.420       .  A
C1141      C1146   1.401       .  A
C1142      C1143   1.413       .  A
C1142      H1147   1.084       .  S
C1143      C1144   1.403       .  A
C1143      O1148   1.370       .  S
C1144      C1145   1.416       .  A
C1145      C1146   1.400       .  A
C1145      H1149   1.083       .  S
C1146      O1150   1.371       .  S
O1148      H1152   0.991       .  S
O1150      H1151   0.991       .  S
C1153      C1154   1.416       .  A
C1153      C1158   1.402       .  A
C1154      C1155   1.416       .  A
C1154      H1159   1.079       .  S
C1155      C1156   1.407       .  A
C1155      O1160   1.371       .  S
C1156      C1157   1.418       .  A
C1157      C1158   1.405       .  A
C1157      H1161   1.080       .  S
C1158      O1162   1.372       .  S
O1160      H1164   0.992       .  S
O1162      H1163   0.992       .  S
C1165      C1166   1.418       .  A
C1165      C1170   1.396       .  A
C1166      C1167   1.406       .  A
C1166      H1171   1.084       .  S
C1167      C1168   1.404       .  A
C1167      O1172   1.371       .  S
C1168      C1169   1.424       .  A
C1169      C1170   1.402       .  A
C1169      H1173   1.083       .  S
C1170      O1174   1.371       .  S
O1172      H1176   0.992       .  S
O1174      H1175   0.992       .  S
C1177      C1178   1.416       .  A
C1177      C1182   1.402       .  A
C1178      C1179   1.419       .  A
C1178      H1183   1.082       .  S
C1179      C1180   1.407       .  A
C1179      O1184   1.370       .  S
C1180      C1181   1.411       .  A
C1181      C1182   1.397       .  A
C1181      H1185   1.084       .  S
C1182      O1186   1.373       .  S
O1184      H1188   0.992       .  S
O1186      H1187   0.991       .  S
C1189      C1190   1.415       .  A
C1189      C1194   1.404       .  A
C1190      C1191   1.417       .  A
C1190      H1195   1.082       .  S
C1191      C1192   1.409       .  A
C1191      O1196   1.370       .  S
C1192      C1193   1.409       .  A
C1193      C1194   1.396       .  A
C1193      H1197   1.081       .  S
C1194      O1198   1.372       .  S
O1196      H1200   0.992       .  S
O1198      H1199   0.992       .  S
C1201      C1202   1.410       .  A
C1201      C1206   1.408       .  A
C1202      C1203   1.414       .  A
C1202      H1207   1.083       .  S
C1203      C1204   1.414       .  A
C1203      O1208   1.370       .  S
C1204      C1205   1.407       .  A
C1205      C1206   1.394       .  A
C1205      H1209   1.082       .  S
C1206      O1210   1.372       .  S
O1208      H1212   0.991       .  S
O1210      H1211   0.992       .  S
C1213      C1214   1.413       .  A
C1213      C1218   1.398       .  A
C1214      C1215   1.408       .  A
C1214      H1219   1.080       .  S
C1215      C1216   1.402       .  A
C1215      O1220   1.371       .  S
C1216      C1217   1.410       .  A
C1217      C1218   1.399       .  A
C1217      H1221   1.078       .  S
C1218      O1222   1.372       .  S
O1220      H1224   0.992       .  S
O1222      H1223   0.992       .  S
C1225      C1226   1.393       .  A
C1225      C1230   1.423       .  A
C1226      C1227   1.395       .  A
C1226      H1231   1.084       .  S
C1227      C1228   1.422       .  A
C1227      O1232   1.372       .  S
C1228      C1229   1.395       .  A
C1229      C1230   1.400       .  A
C1229      H1233   1.084       .  S
C1230      O1234   1.371       .  S
O1232      H1236   0.991       .  S
O1234      H1235   0.991       .  S
C1237      C1238   1.397       .  A
C1237      C1242   1.431       .  A
C1238      C1239   1.406       .  A
C1238      H1243   1.083       .  S
C1239      C1240   1.422       .  A
C1239      O1244   1.372       .  S
C1240      C1241   1.393       .  A
C1241      C1242   1.402       .  A
C1241      H1245   1.084       .  S
C1242      O1246   1.373       .  S
O1244      H1248   0.992       .  S
O1246      H1247   0.992       .  S
C1249      C1250   1.409       .  A
C1249      C1254   1.404       .  A
C1250      C1251   1.410       .  A
C1250      H1255   1.084       .  S
C1251      C1252   1.406       .  A
C1251      O1256   1.372       .  S
C1252      C1253   1.409       .  A
C1253      C1254   1.399       .  A
C1253      H1257   1.084       .  S
C1254      O1258   1.372       .  S
O1256      H1260   0.991       .  S
O1258      H1259   0.992       .  S
C1261      C1262   1.408       .  A
C1261      C1266   1.412       .  A
C1262      C1263   1.413       .  A
C1262      H1267   1.082       .  S
C1263      C1264   1.407       .  A
C1263      O1268   1.372       .  S
C1264      C1265   1.406       .  A
C1265      C1266   1.403       .  A
C1265      H1269   1.084       .  S
C1266      O1270   1.373       .  S
O1268      H1272   0.992       .  S
O1270      H1271   0.992       .  S
C1273      C1274   1.409       .  A
C1273      C1278   1.401       .  A
C1274      C1275   1.402       .  A
C1274      H1279   1.083       .  S
C1275      C1276   1.400       .  A
C1275      O1280   1.369   1_455  S
C1276      C1277   1.412       .  A
C1277      C1278   1.404       .  A
C1277      H1281   1.082       .  S
C1278      O1282   1.371       .  S
O1280      H1284   0.992   1_655  S
O1282      H1283   0.992       .  S
C1285      C1286   1.411       .  A
C1285      C1290   1.402       .  A
C1286      C1287   1.414       .  A
C1286      H1291   1.083       .  S
C1287      C1288   1.412       .  A
C1287      O1292   1.370       .  S
C1288      C1289   1.406       .  A
C1289      C1290   1.392       .  A
C1289      H1293   1.078   1_455  S
C1290      O1294   1.369   1_455  S
O1292      H1296   0.992       .  S
O1294      H1295   0.992       .  S
C1297      C1298   1.397       .  A
C1297      C1302   1.417       .  A
C1298      C1299   1.405       .  A
C1298      H1303   1.083       .  S
C1299      C1300   1.414       .  A
C1299      O1304   1.370       .  S
C1300      C1301   1.387       .  A
C1301      C1302   1.393       .  A
C1301      H1305   1.085       .  S
C1302      O1306   1.370       .  S
O1304      H1308   0.992       .  S
O1306      H1307   0.992       .  S
C1309      C1310   1.393       .  A
C1309      C1314   1.412       .  A
C1310      C1311   1.396       .  A
C1310      H1315   1.084       .  S
C1311      C1312   1.416       .  A
C1311      O1316   1.374       .  S
C1312      C1313   1.392       .  A
C1313      C1314   1.397       .  A
C1313      H1317   1.084       .  S
C1314      O1318   1.372       .  S
O1316      H1320   0.992       .  S
O1318      H1319   0.992       .  S
O1321     Zr1333   2.522       .  S
O1321      C1323   1.302       .  A
O1322     Zr2019   2.356   1_554  S
O1322      C1323   1.273       .  A
C1323      C1924   1.475       .  S
O1324     Zr1336   2.435       .  S
O1324      C1326   1.278       .  A
O1325     Zr1360   2.438   1_554  S
O1325      C1326   1.280       .  A
C1326      C1945   1.486       .  S
O1327     Zr1336   2.400       .  S
O1327      C1329   1.280       .  A
O1328     Zr2019   2.416   1_554  S
O1328      C1329   1.282       .  A
C1329      C1969   1.456       .  S
O1330     Zr1333   2.522       .  S
O1330      C1332   1.303       .  A
O1331     Zr1360   2.366   1_554  S
O1331      C1332   1.276       .  A
C1332      C1912   1.492       .  S
Zr1333     O1334   2.434       .  S
Zr1333     O1335   2.435       .  S
Zr1333     O1340   2.376       .  S
Zr1333     O2023   2.376   1_554  S
Zr1333     O2025   2.376   1_554  S
Zr1333     O1339   2.280       .  S
O1334      H1377   0.990       .  S
O1335      H1376   0.990       .  S
O1335      H1380   0.990       .  S
Zr1336     O1337   2.434       .  S
Zr1336     O1338   2.435   1_455  S
Zr1336     O1340   2.380       .  S
Zr1336     O1364   2.383   1_554  S
Zr1336     O1366   2.388   1_554  S
Zr1336     O1339   2.271       .  S
O1337      H1378   0.989       .  S
O1337      H1381   0.989       .  S
O1338      H1371   0.990       .  S
O1339     Zr2019   2.248   1_554  S
O1340     Zr1360   2.404   1_554  S
O1340      H1367   0.965       .  S
O1341     Zr1353   2.513       .  S
O1341      C1343   1.302       .  A
O1342     Zr2020   2.339       .  S
O1342      C1343   1.271       .  A
C1343      C1888   1.479       .  S
O1344     Zr1356   2.395       .  S
O1344      C1346   1.279       .  A
O1345     Zr1359   2.448       .  S
O1345      C1346   1.288       .  A
C1346      C1957   1.469       .  S
O1347     Zr1356   2.440       .  S
O1347      C1349   1.285       .  A
O1348     Zr2020   2.452       .  S
O1348      C1349   1.289       .  A
C1349      C1936   1.479       .  S
O1350     Zr1353   2.528       .  S
O1350      C1352   1.303       .  A
O1351     Zr1359   2.346       .  S
O1351      C1352   1.265       .  A
C1352      C1897   1.499       .  S
Zr1353     O1354   2.436       .  S
Zr1353     O1355   2.435       .  S
Zr1353     O1361   2.359       .  S
Zr1353     O1365   2.359       .  S
Zr1353     O1363   2.376       .  S
Zr1353     O1362   2.278       .  S
O1354      H1374   0.990       .  S
O1354      H1379   0.990       .  S
O1355      H1375   0.990       .  S
Zr1356     O1357   2.440       .  S
Zr1356     O1358   2.435   1_455  S
Zr1356     O1361   2.372       .  S
Zr1356     O2026   2.370       .  S
Zr1356     O2024   2.387       .  S
Zr1356     O1362   2.276       .  S
O1357      H1373   0.991       .  S
O1358      H1372   0.988       .  S
O1358      H1382   0.990       .  S
Zr1359     O1982   2.347       .  S
Zr1359     O1988   2.435       .  S
Zr1359     O1999   2.347       .  S
Zr1359     O2024   2.371       .  S
Zr1359     O1365   2.402       .  S
Zr1359     O1362   2.247       .  S
Zr1360     O2002   2.336       .  S
Zr1360     O2008   2.470       .  S
Zr1360     O2021   2.379       .  S
Zr1360     O2023   2.407       .  S
Zr1360     O1366   2.381       .  S
O1361     Zr2020   2.377       .  S
O1361      H1369   0.960       .  S
O1363     Zr1993   2.375       .  S
O1363     Zr2020   2.403       .  S
O1364     Zr2016   2.379       .  S
O1364     Zr2019   2.371       .  S
O1364      H1368   0.967       .  S
O1365     Zr1993   2.372       .  S
O1365      H1370   0.966       .  S
O1366     Zr2016   2.366       .  S
O1383     Zr1395   2.400       .  S
O1383      C1385   1.278       .  A
O1384     Zr2081   2.458   1_554  S
O1384      C1385   1.291       .  A
C1385      C1873   1.470       .  S
O1386     Zr1398   2.557       .  S
O1386      C1388   1.311       .  A
O1387     Zr2082   2.321       .  S
O1387      C1388   1.272       .  A
C1388      C1789   1.473       .  S
O1389     Zr1398   2.524       .  S
O1389      C1391   1.304       .  A
O1390     Zr1421   2.375       .  S
O1390      C2051   1.277       .  A
C1391      O2050   1.278       .  A
C1391      C1801   1.497       .  S
O1392     Zr1395   2.433       .  S
O1392      C1394   1.277       .  A
O1393     Zr2082   2.487       .  S
O1393      C1394   1.291       .  A
C1394      C1852   1.501       .  S
Zr1395     O1396   2.445       .  S
Zr1395     O1397   2.430       .  S
Zr1395     O1402   2.372       .  S
Zr1395     O2085   2.366   1_554  S
Zr1395     O2087   2.371   1_554  S
Zr1395     O1401   2.279       .  S
O1396      H1439   0.990       .  S
O1397      H1438   0.987       .  S
O1397      H1442   0.989       .  S
Zr1398     O1399   2.438       .  S
Zr1398     O1400   2.435       .  S
Zr1398     O1402   2.348       .  S
Zr1398     O2086   2.381   1_554  S
Zr1398     O2088   2.362       .  S
Zr1398     O1401   2.285       .  S
O1399      H1440   0.990       .  S
O1399      H1443   0.990       .  S
O1400      H1433   0.990       .  S
O1401     Zr2081   2.248   1_554  S
O1402     Zr2082   2.383       .  S
O1402      H1429   0.964       .  S
O1403     Zr1415   2.438       .  S
O1403      C1405   1.280       .  A
O1404     Zr1422   2.448       .  S
O1404      C1405   1.283       .  A
C1405      C1837   1.491       .  S
O1406     Zr1418   2.544       .  S
O1406      C1408   1.309       .  A
O1407     Zr1421   2.358       .  S
O1407      C1408   1.274       .  A
C1408      C1828   1.505       .  S
O1409     Zr1418   2.534       .  S
O1409      C1411   1.295       .  A
O1410     Zr1422   2.385       .  S
O1410      C1411   1.264       .  A
C1411      C1816   1.515       .  S
O1412     Zr1415   2.410       .  S
O1412      C1414   1.274       .  A
O1413     Zr1421   2.462       .  S
O1413      C1414   1.285       .  A
C1414      C1864   1.496       .  S
Zr1415     O1416   2.443       .  S
Zr1415     O1417   2.435       .  S
Zr1415     O1423   2.366       .  S
Zr1415     O1424   2.384       .  S
Zr1415     O1427   2.427       .  S
Zr1415     O1425   2.395       .  S
O1416      H1436   0.989       .  S
O1416      H1441   0.989       .  S
O1417      H1437   0.990       .  S
Zr1418     O1419   2.434       .  S
Zr1418     O1420   2.435       .  S
Zr1418     O1424   2.378       .  S
Zr1418     O1423   2.393       .  S
Zr1418     O1428   2.402       .  S
Zr1418     O1426   2.386       .  S
O1419      H1435   0.990       .  S
O1420      H1434   0.990       .  S
O1420      H1444   0.990       .  S
Zr1421     O2044   2.469       .  S
Zr1421     O1424   2.391       .  S
Zr1421     O1426   2.410       .  S
Zr1421     O1427   2.388       .  S
Zr1421     O2061   2.245       .  S
Zr1422     O2047   2.331       .  S
Zr1422     O2053   2.478       .  S
Zr1422     O2062   2.377       .  S
Zr1422     O1423   2.414       .  S
Zr1422     O1425   2.388       .  S
Zr1422     O1428   2.414       .  S
O1423      H1431   0.962       .  S
O1425     Zr2055   2.365       .  S
O1426     Zr2058   2.380       .  S
O1426      H1430   0.965       .  S
O1427     Zr2055   2.374       .  S
O1427      H1432   0.965       .  S
O1428     Zr2058   2.363       .  S
O1445     Zr1457   2.543       .  S
O1445      C1447   1.308       .  A
O1446      C1447   1.273       .  A
C1447      C1777   1.479       .  S
O1448     Zr1460   2.405       .  S
O1448      C1450   1.278       .  A
O1449     Zr1484   2.497       .  S
O1449      C1450   1.298       .  A
C1450      C1804   1.494       .  S
O1451     Zr1460   2.391       .  S
O1451      C1453   1.269       .  A
O1452      C1453   1.288       .  A
C1453      C1921   1.496       .  S
O1454     Zr1457   2.531       .  S
O1454      C1456   1.305       .  A
O1455     Zr1484   2.335       .  S
O1455      C1456   1.271       .  A
C1456      C1768   1.471       .  S
Zr1457     O1458   2.434       .  S
Zr1457     O1459   2.437       .  S
Zr1457     O1464   2.359       .  S
Zr1457     O1487   2.373       .  S
Zr1457     O1463   2.280       .  S
O1458      H1501   0.990       .  S
O1459      H1500   0.990       .  S
O1459      H1504   0.990       .  S
Zr1460     O1461   2.436       .  S
Zr1460     O1462   2.432       .  S
Zr1460     O1464   2.375       .  S
Zr1460     O1488   2.389       .  S
Zr1460     O1490   2.355       .  S
Zr1460     O1463   2.288       .  S
O1461      H1502   0.990       .  S
O1461      H1505   0.991       .  S
O1462      H1495   0.990       .  S
O1464     Zr1484   2.382       .  S
O1464      H1491   0.961       .  S
O1465     Zr1477   2.544       .  S
O1465      C1467   1.309       .  A
O1466      C1467   1.273       .  A
C1467      C1741   1.501       .  S
O1468     Zr1480   2.384       .  S
O1468      C1470   1.275       .  A
O1469     Zr1483   2.467       .  S
O1469      C1470   1.294       .  A
C1470      C1909   1.471       .  S
O1471     Zr1480   2.404       .  S
O1471      C1473   1.271       .  A
O1472      C1473   1.283       .  A
C1473      C1792   1.501       .  S
O1474     Zr1477   2.543       .  S
O1474      C1476   1.309       .  A
O1475     Zr1483   2.377       .  S
O1475      C1476   1.277       .  A
C1476      C1753   1.501       .  S
Zr1477     O1478   2.435       .  S
Zr1477     O1479   2.435       .  S
Zr1477     O1485   2.373       .  S
Zr1477     O1486   2.379       .  S
Zr1477     O1489   2.372       .  S
O1478      H1498   0.990       .  S
O1478      H1503   0.990       .  S
O1479      H1499   0.990       .  S
Zr1480     O1481   2.436       .  S
Zr1480     O1482   2.422       .  S
Zr1480     O1486   2.360       .  S
Zr1480     O1485   2.367       .  S
O1481      H1497   0.990       .  S
O1482      H1496   0.988       .  S
O1482      H1506   0.990       .  S
Zr1483     O1486   2.363       .  S
Zr1483     O1489   2.409       .  S
Zr1484     O1487   2.417       .  S
Zr1484     O1490   2.380       .  S
O1485      H1493   0.965       .  S
O1488      H1492   0.966       .  S
O1489      H1494   0.965       .  S
O1507     Zr1519   2.383       .  S
O1507      C1509   1.266       .  A
O1508      C1509   1.294       .  A
C1509      C1900   1.482       .  S
O1510     Zr1522   2.509       .  S
O1510      C1512   1.301       .  A
O1511      C1512   1.275       .  A
C1512      C1720   1.482       .  S
O1513     Zr1522   2.544       .  S
O1513      C1515   1.310       .  A
O1514      C1515   1.270       .  A
C1515      C1729   1.492       .  S
O1516     Zr1519   2.392       .  S
O1516      C1518   1.276       .  A
O1517      C1518   1.299       .  A
C1518      C1825   1.497       .  S
Zr1519     O1520   2.439       .  S
Zr1519     O1521   2.432       .  S
Zr1519     O1526   2.371       .  S
Zr1519     O1525   2.260       .  S
O1520      H1563   0.990       .  S
O1521      H1562   0.990       .  S
O1521      H1566   0.989       .  S
Zr1522     O1523   2.436       .  S
Zr1522     O1524   2.439       .  S
Zr1522     O1526   2.394       .  S
Zr1522     O1525   2.264       .  S
O1523      H1564   0.990       .  S
O1523      H1567   0.990       .  S
O1524      H1557   0.990       .  S
O1526      H1553   0.965       .  S
O1527     Zr1539   2.430       .  S
O1527      C1529   1.277       .  A
O1528     Zr1546   2.483       .  S
O1528      C1529   1.290       .  A
C1529      C1813   1.500       .  S
O1530     Zr1542   2.532       .  S
O1530      C1532   1.305       .  A
O1531     Zr1545   2.357       .  S
O1531      C1532   1.274       .  A
C1532      C1705   1.479       .  S
O1533     Zr1542   2.558       .  S
O1533      C1535   1.312       .  A
O1534     Zr1546   2.349       .  S
O1534      C1535   1.273       .  A
C1535      C1693   1.486       .  S
O1536     Zr1539   2.382       .  S
O1536      C1538   1.275       .  A
O1537     Zr1545   2.459       .  S
O1537      C1538   1.291       .  A
C1538      C1885   1.481       .  S
Zr1539     O1540   2.448       .  S
Zr1539     O1541   2.429       .  S
Zr1539     O1547   2.364       .  S
Zr1539     O1551   2.388       .  S
Zr1539     O1549   2.396       .  S
Zr1539     O1548   2.273       .  S
O1540      H1560   0.990       .  S
O1540      H1565   0.988       .  S
O1541      H1561   0.987       .  S
Zr1542     O1543   2.436       .  S
Zr1542     O1544   2.437       .  S
Zr1542     O1547   2.359       .  S
Zr1542     O1552   2.365       .  S
Zr1542     O1550   2.384       .  S
Zr1542     O1548   2.288       .  S
O1543      H1559   0.990       .  S
O1544      H1558   0.990       .  S
O1544      H1568   0.990       .  S
Zr1545     O1550   2.417       .  S
Zr1545     O1551   2.370       .  S
Zr1545     O1548   2.250       .  S
Zr1546     O1547   2.392       .  S
Zr1546     O1549   2.374       .  S
Zr1546     O1552   2.423       .  S
O1547      H1555   0.960       .  S
O1550      H1554   0.965       .  S
O1551      H1556   0.965       .  S
O1569     Zr4221   2.524   1_455  S
O1569      C1571   1.303       .  A
O1570     Zr1607   2.342       .  S
O1570      C1571   1.270       .  A
C1571      C1780   1.478       .  S
O1572     Zr1584   2.426       .  S
O1572      C1574   1.273       .  A
O1573     Zr1608   2.466       .  S
O1573      C1574   1.285       .  A
C1574      C1876   1.488       .  S
O1575     Zr4224   2.390   1_455  S
O1575      C1577   1.278       .  A
O1576     Zr1607   2.433       .  S
O1576      C1577   1.284       .  A
C1577      C1972   1.458       .  S
O1578     Zr1581   2.537       .  S
O1578      C1580   1.306       .  A
O1579     Zr1608   2.354       .  S
O1579      C1580   1.273       .  A
C1580      C1765   1.478       .  S
Zr1581     O4209   2.536       .  S
Zr1581     O1582   2.435       .  S
Zr1581     O1583   2.436       .  S
Zr1581     O1588   2.363       .  S
Zr1581     O1611   2.366       .  S
Zr1581     O4253   2.368       .  S
Zr1581     O4227   2.288       .  S
O1582      H4265   0.990       .  S
O1583      H4264   0.990       .  S
O1583      H1628   0.990       .  S
Zr1584     O4215   2.393       .  S
Zr1584     O1585   2.453       .  S
Zr1584     O1586   2.437       .  S
Zr1584     O1588   2.401       .  S
Zr1584     O4252   2.386       .  S
Zr1584     O1614   2.365       .  S
Zr1584     O4227   2.282       .  S
O1585      H1626   0.989       .  S
O1585      H1629   0.990       .  S
O1586      H1619   0.990       .  S
O1587     Zr4221   2.290       .  S
O1587     Zr4224   2.283       .  S
O1587     Zr1607   2.240   1_655  S
O1588     Zr1608   2.391       .  S
O1588      H1615   0.958       .  S
O1589     Zr1601   2.507       .  S
O1589      C1591   1.301       .  A
O1590     Zr1608   2.357       .  S
O1590      C1591   1.274       .  A
C1591      C1717   1.492       .  S
O1592     Zr4244   2.404   1_455  S
O1592      C1594   1.281       .  A
O1593     Zr1607   2.454       .  S
O1593      C1594   1.289       .  A
C1594      C1960   1.460       .  S
O1595     Zr1604   2.410       .  S
O1595      C1597   1.271       .  A
O1596     Zr1608   2.455       .  S
O1596      C1597   1.282       .  A
C1597      C1861   1.489       .  S
O1598     Zr4241   2.564   1_455  S
O1598      C1600   1.312       .  A
O1599     Zr1607   2.314       .  S
O1599      C1600   1.266       .  A
C1600      C1732   1.491       .  S
Zr1601     O4238   2.567       .  S
Zr1601     O1602   2.436       .  S
Zr1601     O1603   2.433       .  S
Zr1601     O1609   2.406       .  S
Zr1601     O4250   2.340       .  S
Zr1601     O4253   2.370       .  S
Zr1601     O1611   2.380       .  S
O1602      H1622   0.990       .  S
O1602      H1627   0.990       .  S
O1603      H1623   0.990       .  S
Zr1604     O4232   2.401       .  S
Zr1604     O1605   2.434       .  S
Zr1604     O1606   2.437       .  S
Zr1604     O4250   2.354       .  S
Zr1604     O1609   2.395       .  S
Zr1604     O1614   2.382       .  S
Zr1604     O4252   2.392       .  S
O1605      H1621   0.990       .  S
O1606      H1620   0.990       .  S
O1606      H1630   0.990       .  S
Zr1607     O1610   2.336       .  S
Zr1607     O1612   2.367       .  S
Zr1607     O1613   2.401       .  S
Zr1608     O1609   2.402       .  S
Zr1608     O1611   2.410       .  S
Zr1608     O1614   2.382       .  S
O1609      H1617   0.966       .  S
O1610     Zr4241   2.336   1_455  S
O1610     Zr4244   2.349   1_455  S
O1612     Zr4224   2.385   1_455  S
O1612     Zr4244   2.390   1_455  S
O1612      H1616   0.966       .  S
O1613     Zr4221   2.367   1_455  S
O1613     Zr4241   2.368   1_455  S
O1613      H1618   0.966       .  S
H1624      O4223   0.990       .  S
H1625      O4222   0.990       .  S
O1631     Zr4283   2.416   1_455  S
O1631      C1633   1.273       .  A
O1632     Zr1669   2.457       .  S
O1632      C1633   1.284       .  A
C1633      C1948   1.493       .  S
O1634     Zr1646   2.546       .  S
O1634      C1636   1.309       .  A
O1635     Zr1670   2.348       .  S
O1635      C1636   1.273       .  A
C1636      C1744   1.499       .  S
O1637     Zr4286   2.564   1_455  S
O1637      C1639   1.312       .  A
O1638     Zr1669   2.360       .  S
O1638      C1639   1.275       .  A
C1639      C1756   1.514       .  S
O1640     Zr1643   2.408       .  S
O1640      C1642   1.273       .  A
O1641     Zr1670   2.452       .  S
O1641      C1642   1.276       .  A
C1642      C1849   1.497       .  S
Zr1643     O4271   2.411       .  S
Zr1643     O1644   2.439       .  S
Zr1643     O1645   2.446       .  S
Zr1643     O1650   2.369       .  S
Zr1643     O1673   2.406       .  S
Zr1643     O4315   2.402       .  S
Zr1643     O4289   2.294       .  S
O1644      H4327   0.989       .  S
O1645      H1686   0.990       .  S
O1645      H1690   0.989       .  S
Zr1646     O4277   2.553       .  S
Zr1646     O1647   2.436       .  S
Zr1646     O1648   2.435       .  S
Zr1646     O1650   2.376       .  S
Zr1646     O4314   2.377       .  S
Zr1646     O1676   2.384       .  S
Zr1646     O4289   2.293       .  S
O1647      H1688   0.991       .  S
O1647      H1691   0.990       .  S
O1648      H4321   0.990       .  S
O1649     Zr4283   2.387       .  S
O1649     Zr4286   2.383       .  S
O1649     Zr1669   2.387   1_655  S
O1650     Zr1670   2.410       .  S
O1650      H1677   0.963       .  S
O1651     Zr1663   2.426       .  S
O1651      C1653   1.284       .  A
O1652     Zr1670   2.496       .  S
O1652      C1653   1.297       .  A
C1653      C1840   1.496       .  S
O1654     Zr4306   2.522   1_455  S
O1654      C1656   1.304       .  A
O1655     Zr1669   2.373       .  S
O1655      C1656   1.276       .  A
C1656      C1708   1.481       .  S
O1657     Zr1666   2.551       .  S
O1657      C1659   1.308       .  A
O1658     Zr1670   2.325       .  S
O1658      C1659   1.268       .  A
C1659      C1696   1.481       .  S
O1660     Zr4303   2.409   1_455  S
O1660      C1662   1.270       .  A
O1661     Zr1669   2.467       .  S
O1661      C1662   1.283       .  A
C1662      C1933   1.484       .  S
Zr1663     O4300   2.399       .  S
Zr1663     O1664   2.443       .  S
Zr1663     O1665   2.434       .  S
Zr1663     O1671   2.381       .  S
Zr1663     O4315   2.385       .  S
Zr1663     O1673   2.361       .  S
Zr1663     O4312   2.299       .  S
O1664      H1684   0.990       .  S
O1664      H1689   0.990       .  S
O1665      H1685   0.990       .  S
Zr1666     O4294   2.528       .  S
Zr1666     O1667   2.436       .  S
Zr1666     O1668   2.437       .  S
Zr1666     O1671   2.343       .  S
Zr1666     O1676   2.373       .  S
Zr1666     O4314   2.367       .  S
Zr1666     O4312   2.293       .  S
O1667      H1683   0.990       .  S
O1668      H1682   0.990       .  S
O1668      H1692   0.990       .  S
Zr1669     O1672   2.370       .  S
Zr1669     O1674   2.404       .  S
Zr1669     O1675   2.403   1_455  S
Zr1670     O1671   2.380       .  S
Zr1670     O1673   2.388       .  S
Zr1670     O1676   2.417       .  S
O1671      H1679   0.961       .  S
O1672     Zr4303   2.398   1_455  S
O1672     Zr4306   2.374   1_455  S
O1674     Zr4286   2.369   1_455  S
O1674     Zr4306   2.359   1_455  S
O1674      H1678   0.965       .  S
O1675     Zr4283   2.398       .  S
O1675     Zr4303   2.386       .  S
O1675      H1680   0.966   1_655  S
H1681      O4288   0.990       .  S
H1687      O4284   0.989       .  S
C1693      C1694   1.400       .  A
C1693      C1698   1.417       .  A
C1694      C1695   1.408       .  A
C1694      H1699   1.084       .  S
C1695      C1696   1.416       .  A
C1695      O1700   1.372       .  S
C1696      C1697   1.402       .  A
C1697      C1698   1.411       .  A
C1697      H1701   1.084       .  S
C1698      O1702   1.370       .  S
O1700      H1704   0.990       .  S
O1702      H1703   0.992       .  S
C1705      C1706   1.407       .  A
C1705      C1710   1.411       .  A
C1706      C1707   1.403       .  A
C1706      H1711   1.081       .  S
C1707      C1708   1.404       .  A
C1707      O1712   1.371       .  S
C1708      C1709   1.410       .  A
C1709      C1710   1.409       .  A
C1709      H1713   1.084       .  S
C1710      O1714   1.372       .  S
O1712      H1716   0.991       .  S
O1714      H1715   0.992       .  S
C1717      C1718   1.421       .  A
C1717      C1722   1.403       .  A
C1718      C1719   1.400       .  A
C1718      H1723   1.083       .  S
C1719      C1720   1.399       .  A
C1719      O1724   1.372       .  S
C1720      C1721   1.415       .  A
C1721      C1722   1.398       .  A
C1721      H1725   1.082       .  S
C1722      O1726   1.372       .  S
O1724      H1728   0.991       .  S
O1726      H1727   0.992       .  S
C1729      C1730   1.423       .  A
C1729      C1734   1.398       .  A
C1730      C1731   1.410       .  A
C1730      H1735   1.084       .  S
C1731      C1732   1.399       .  A
C1731      O1736   1.371       .  S
C1732      C1733   1.420       .  A
C1733      C1734   1.399       .  A
C1733      H1737   1.081       .  S
C1734      O1738   1.370       .  S
O1736      H1740   0.992       .  S
O1738      H1739   0.992       .  S
C1741      C1742   1.423       .  A
C1741      C1746   1.402       .  A
C1742      C1743   1.406       .  A
C1742      H1747   1.084       .  S
C1743      C1744   1.400       .  A
C1743      O1748   1.371       .  S
C1744      C1745   1.421       .  A
C1745      C1746   1.405       .  A
C1745      H1749   1.083       .  S
C1746      O1750   1.372       .  S
O1748      H1752   0.992       .  S
O1750      H1751   0.992       .  S
C1753      C1754   1.420       .  A
C1753      C1758   1.401       .  A
C1754      C1755   1.414       .  A
C1754      H1759   1.084       .  S
C1755      C1756   1.407       .  A
C1755      O1760   1.371       .  S
C1756      C1757   1.424       .  A
C1757      C1758   1.407       .  A
C1757      H1761   1.083       .  S
C1758      O1762   1.372       .  S
O1760      H1764   0.992       .  S
O1762      H1763   0.992       .  S
C1765      C1766   1.405       .  A
C1765      C1770   1.409       .  A
C1766      C1767   1.408       .  A
C1766      H1771   1.084       .  S
C1767      C1768   1.411       .  A
C1767      O1772   1.373       .  S
C1768      C1769   1.405       .  A
C1769      C1770   1.405       .  A
C1769      H1773   1.084       .  S
C1770      O1774   1.371       .  S
O1772      H1776   0.991       .  S
O1774      H1775   0.992       .  S
C1777      C1778   1.400       .  A
C1777      C1782   1.416       .  A
C1778      C1779   1.405       .  A
C1778      H1783   1.084       .  S
C1779      C1780   1.418       .  A
C1779      O1784   1.374       .  S
C1780      C1781   1.397       .  A
C1781      C1782   1.403       .  A
C1781      H1785   1.080       .  S
C1782      O1786   1.371       .  S
O1784      H1788   0.992       .  S
O1786      H1787   0.992       .  S
C1789      C1790   1.411       .  A
C1789      C1794   1.404       .  A
C1790      C1791   1.413       .  A
C1790      H1795   1.081       .  S
C1791      C1792   1.411       .  A
C1791      O1796   1.370       .  S
C1792      C1793   1.407       .  A
C1793      C1794   1.398       .  A
C1793      H1797   1.075       .  S
C1794      O1798   1.372       .  S
O1796      H1800   0.990       .  S
O1798      H1799   0.991       .  S
C1801      C1802   1.419       .  A
C1801      C1806   1.403       .  A
C1802      C1803   1.410       .  A
C1802      H1807   1.083       .  S
C1803      C1804   1.401       .  A
C1803      O1808   1.370       .  S
C1804      C1805   1.416       .  A
C1805      C1806   1.403       .  A
C1805      H1809   1.084       .  S
C1806      O1810   1.371       .  S
O1808      H1812   0.992       .  S
O1810      H1811   0.992       .  S
C1813      C1814   1.417       .  A
C1813      C1818   1.400       .  A
C1814      C1815   1.419       .  A
C1814      H1819   1.081       .  S
C1815      C1816   1.410       .  A
C1815      O1820   1.371       .  S
C1816      C1817   1.418       .  A
C1817      C1818   1.403       .  A
C1817      H1821   1.081       .  S
C1818      O1822   1.371       .  S
O1820      H1824   0.992       .  S
O1822      H1823   0.992       .  S
C1825      C1826   1.418       .  A
C1825      C1830   1.400       .  A
C1826      C1827   1.405       .  A
C1826      H1831   1.084       .  S
C1827      C1828   1.403       .  A
C1827      O1832   1.371       .  S
C1828      C1829   1.424       .  A
C1829      C1830   1.408       .  A
C1829      H1833   1.083       .  S
C1830      O1834   1.371       .  S
O1832      H1836   0.992       .  S
O1834      H1835   0.992       .  S
C1837      C1838   1.415       .  A
C1837      C1842   1.402       .  A
C1838      C1839   1.417       .  A
C1838      H1843   1.082       .  S
C1839      C1840   1.407       .  A
C1839      O1844   1.370       .  S
C1840      C1841   1.412       .  A
C1841      C1842   1.397       .  A
C1841      H1845   1.084       .  S
C1842      O1846   1.373       .  S
O1844      H1848   0.992       .  S
O1846      H1847   0.992       .  S
C1849      C1850   1.416       .  A
C1849      C1854   1.405       .  A
C1850      C1851   1.418       .  A
C1850      H1855   1.082       .  S
C1851      C1852   1.409       .  A
C1851      O1856   1.370       .  S
C1852      C1853   1.408       .  A
C1853      C1854   1.397       .  A
C1853      H1857   1.079       .  S
C1854      O1858   1.372       .  S
O1856      H1860   0.992       .  S
O1858      H1859   0.992       .  S
C1861      C1862   1.409       .  A
C1861      C1866   1.410       .  A
C1862      C1863   1.412       .  A
C1862      H1867   1.083       .  S
C1863      C1864   1.413       .  A
C1863      O1868   1.370       .  S
C1864      C1865   1.407       .  A
C1865      C1866   1.394       .  A
C1865      H1869   1.081       .  S
C1866      O1870   1.372       .  S
O1868      H1872   0.991       .  S
O1870      H1871   0.992       .  S
C1873      C1874   1.410       .  A
C1873      C1878   1.401       .  A
C1874      C1875   1.404       .  A
C1874      H1879   1.080       .  S
C1875      C1876   1.401       .  A
C1875      O1880   1.371       .  S
C1876      C1877   1.411       .  A
C1877      C1878   1.399       .  A
C1877      H1881   1.079       .  S
C1878      O1882   1.372       .  S
O1880      H1884   0.992       .  S
O1882      H1883   0.992       .  S
C1885      C1886   1.396       .  A
C1885      C1890   1.421       .  A
C1886      C1887   1.399       .  A
C1886      H1891   1.084       .  S
C1887      C1888   1.423       .  A
C1887      O1892   1.372       .  S
C1888      C1889   1.393       .  A
C1889      C1890   1.396       .  A
C1889      H1893   1.084       .  S
C1890      O1894   1.371       .  S
O1892      H1896   0.991       .  S
O1894      H1895   0.991       .  S
C1897      C1898   1.397       .  A
C1897      C1902   1.432       .  A
C1898      C1899   1.405       .  A
C1898      H1903   1.083       .  S
C1899      C1900   1.420       .  A
C1899      O1904   1.372       .  S
C1900      C1901   1.392       .  A
C1901      C1902   1.400       .  A
C1901      H1905   1.084       .  S
C1902      O1906   1.373       .  S
O1904      H1908   0.992       .  S
O1906      H1907   0.992       .  S
C1909      C1910   1.410       .  A
C1909      C1914   1.401       .  A
C1910      C1911   1.410       .  A
C1910      H1915   1.083       .  S
C1911      C1912   1.407       .  A
C1911      O1916   1.371       .  S
C1912      C1913   1.414       .  A
C1913      C1914   1.399       .  A
C1913      H1917   1.084   1_554  S
C1914      O1918   1.372   1_554  S
O1916      H1920   0.991       .  S
O1918      H1919   0.992       .  S
C1921      C1922   1.408       .  A
C1921      C1926   1.414       .  A
C1922      C1923   1.407       .  A
C1922      H1927   1.081       .  S
C1923      C1924   1.408       .  A
C1923      O1928   1.368       .  S
C1924      C1925   1.404       .  A
C1925      C1926   1.403       .  A
C1925      H1929   1.085       .  S
C1926      O1930   1.374   1_554  S
O1928      H1932   0.991       .  S
O1930      H1931   0.992       .  S
C1933      C1934   1.410       .  A
C1933      C1938   1.402       .  A
C1934      C1935   1.401       .  A
C1934      H1939   1.081       .  S
C1935      C1936   1.397       .  A
C1935      O1940   1.368   1_455  S
C1936      C1937   1.412       .  A
C1937      C1938   1.406       .  A
C1937      H1941   1.081       .  S
C1938      O1942   1.372       .  S
O1940      H1944   0.992       .  S
O1942      H1943   0.992       .  S
C1945      C1946   1.412       .  A
C1945      C1950   1.403       .  A
C1946      C1947   1.413       .  A
C1946      H1951   1.083       .  S
C1947      C1948   1.411       .  A
C1947      O1952   1.370       .  S
C1948      C1949   1.406       .  A
C1949      C1950   1.392       .  A
C1949      H1953   1.079   1_455  S
C1950      O1954   1.370   1_455  S
O1952      H1956   0.992       .  S
O1954      H1955   0.992       .  S
C1957      C1958   1.395       .  A
C1957      C1962   1.417       .  A
C1958      C1959   1.403       .  A
C1958      H1963   1.083       .  S
C1959      C1960   1.417       .  A
C1959      O1964   1.370       .  S
C1960      C1961   1.385       .  A
C1961      C1962   1.391       .  A
C1961      H1965   1.085       .  S
C1962      O1966   1.371       .  S
O1964      H1968   0.992       .  S
O1966      H1967   0.992       .  S
C1969      C1970   1.392       .  A
C1969      C1974   1.411       .  A
C1970      C1971   1.395       .  A
C1970      H1975   1.084       .  S
C1971      C1972   1.414       .  A
C1971      O1976   1.371       .  S
C1972      C1973   1.393       .  A
C1973      C1974   1.396       .  A
C1973      H1977   1.084       .  S
C1974      O1978   1.373       .  S
O1976      H1980   0.992       .  S
O1978      H1979   0.992       .  S
O1981     Zr1993   2.537       .  S
O1981      C1983   1.305       .  A
O1982      C1983   1.272       .  A
C1983      C2584   1.480       .  S
O1984     Zr1996   2.429       .  S
O1984      C1986   1.276       .  A
O1985     Zr2020   2.441       .  S
O1985      C1986   1.281       .  A
C1986      C2605   1.485       .  S
O1987     Zr1996   2.404       .  S
O1987      C1989   1.281       .  A
O1988      C1989   1.285       .  A
C1989      C2629   1.462       .  S
O1990     Zr1993   2.517       .  S
O1990      C1992   1.302       .  A
O1991     Zr2020   2.353       .  S
O1991      C1992   1.274       .  A
C1992      C2572   1.486       .  S
Zr1993     O1994   2.435       .  S
Zr1993     O1995   2.436       .  S
Zr1993     O1999   2.364       .  S
Zr1993     O2000   2.388       .  S
O1994      H2037   0.990       .  S
O1995      H2036   0.990       .  S
O1995      H2040   0.990       .  S
Zr1996     O1997   2.435       .  S
Zr1996     O1998   2.438   1_455  S
Zr1996     O2000   2.388       .  S
Zr1996     O1999   2.366       .  S
Zr1996     O2024   2.382       .  S
Zr1996     O2026   2.395       .  S
O1997      H2038   0.990       .  S
O1997      H2041   0.988       .  S
O1998      H2031   0.990       .  S
O2000     Zr2020   2.388       .  S
O2000      H2027   0.965       .  S
O2001     Zr2013   2.527       .  S
O2001      C2003   1.304       .  A
O2002      C2003   1.270       .  A
C2003      C2548   1.484       .  S
O2004     Zr2016   2.391       .  S
O2004      C2006   1.277       .  A
O2005     Zr2019   2.464       .  S
O2005      C2006   1.289       .  A
C2006      C2617   1.472       .  S
O2007     Zr2016   2.423       .  S
O2007      C2009   1.281       .  A
O2008      C2009   1.292       .  A
C2009      C2596   1.487       .  S
O2010     Zr2013   2.538       .  S
O2010      C2012   1.303       .  A
O2011     Zr2019   2.348       .  S
O2011      C2012   1.262       .  A
C2012      C2557   1.503       .  S
Zr2013     O2014   2.436       .  S
Zr2013     O2015   2.437       .  S
Zr2013     O2021   2.369       .  S
Zr2013     O2025   2.361       .  S
Zr2013     O2023   2.380       .  S
Zr2013     O2022   2.286       .  S
O2014      H2034   0.990       .  S
O2014      H2039   0.990       .  S
O2015      H2035   0.990       .  S
Zr2016     O2017   2.440       .  S
Zr2016     O2018   2.435   1_455  S
Zr2016     O2021   2.381       .  S
Zr2016     O2022   2.281       .  S
O2017      H2033   0.990       .  S
O2018      H2032   0.988       .  S
O2018      H2042   0.990       .  S
Zr2019     O2025   2.405       .  S
Zr2019     O2022   2.244       .  S
Zr2020     O2026   2.378       .  S
O2021      H2029   0.962       .  S
O2024      H2028   0.965       .  S
O2025      H2030   0.966       .  S
O2043     Zr2055   2.406       .  S
O2043      C2045   1.279       .  A
O2044      C2045   1.293       .  A
C2045      C2533   1.478       .  S
O2046     Zr2058   2.550       .  S
O2046      C2048   1.309       .  A
O2047      C2048   1.274       .  A
C2048      C2449   1.476       .  S
O2049     Zr2058   2.507       .  S
O2049      C2051   1.302       .  A
O2050     Zr2081   2.376   1_554  S
C2051      C2461   1.486       .  S
O2052     Zr2055   2.430       .  S
O2052      C2054   1.276       .  A
O2053      C2054   1.289       .  A
C2054      C2512   1.497       .  S
Zr2055     O2056   2.443       .  S
Zr2055     O2057   2.434       .  S
Zr2055     O2062   2.375       .  S
Zr2055     O2061   2.276       .  S
O2056      H2099   0.990       .  S
O2057      H2098   0.988       .  S
O2057      H2102   0.990       .  S
Zr2058     O2059   2.437       .  S
Zr2058     O2060   2.435       .  S
Zr2058     O2062   2.345       .  S
Zr2058     O2061   2.285       .  S
O2059      H2100   0.990       .  S
O2059      H2103   0.990       .  S
O2060      H2093   0.990       .  S
O2062      H2089   0.952       .  S
O2063     Zr2075   2.438       .  S
O2063      C2065   1.280       .  A
O2064     Zr2082   2.456   1_556  S
O2064      C2065   1.284       .  A
C2065      C2497   1.496       .  S
O2066     Zr2078   2.537       .  S
O2066      C2068   1.307       .  A
O2067     Zr2081   2.359       .  S
O2067      C2068   1.274       .  A
C2068      C2488   1.504       .  S
O2069     Zr2078   2.527       .  S
O2069      C2071   1.294       .  A
O2070     Zr2082   2.385   1_556  S
O2070      C2071   1.264       .  A
C2071      C2476   1.510       .  S
O2072     Zr2075   2.410       .  S
O2072      C2074   1.273       .  A
O2073     Zr2081   2.460       .  S
O2073      C2074   1.284       .  A
C2074      C2524   1.495       .  S
Zr2075     O2076   2.440       .  S
Zr2075     O2077   2.435       .  S
Zr2075     O2083   2.366       .  S
Zr2075     O2084   2.385       .  S
Zr2075     O2087   2.421       .  S
Zr2075     O2085   2.393       .  S
O2076      H2096   0.989       .  S
O2076      H2101   0.990       .  S
O2077      H2097   0.990       .  S
Zr2078     O2079   2.435       .  S
Zr2078     O2080   2.434       .  S
Zr2078     O2084   2.375       .  S
Zr2078     O2083   2.383       .  S
Zr2078     O2088   2.401   1_556  S
Zr2078     O2086   2.384       .  S
O2079      H2095   0.990       .  S
O2080      H2094   0.990       .  S
O2080      H2104   0.990       .  S
Zr2081     O2084   2.385       .  S
Zr2081     O2086   2.408       .  S
Zr2081     O2087   2.390       .  S
Zr2082     O2083   2.415   1_554  S
Zr2082     O2085   2.389   1_554  S
Zr2082     O2088   2.414       .  S
O2083      H2091   0.960       .  S
O2086      H2090   0.965       .  S
O2087      H2092   0.966       .  S
O2105     Zr2117   2.533       .  S
O2105      C2107   1.306       .  A
O2106      C2107   1.274       .  A
C2107      C2437   1.479       .  S
O2108     Zr2120   2.401       .  S
O2108      C2110   1.279       .  A
O2109     Zr2144   2.488       .  S
O2109      C2110   1.296       .  A
C2110      C2464   1.492       .  S
O2111     Zr2120   2.393       .  S
O2111      C2113   1.271       .  A
O2112      C2113   1.289       .  A
C2113      C2581   1.496       .  S
O2114     Zr2117   2.515       .  S
O2114      C2116   1.302       .  A
O2115     Zr2144   2.347       .  S
O2115      C2116   1.272       .  A
C2116      C2428   1.469       .  S
Zr2117     O2118   2.434       .  S
Zr2117     O2119   2.438       .  S
Zr2117     O2124   2.365       .  S
Zr2117     O2147   2.374       .  S
Zr2117     O2123   2.282       .  S
O2118      H2161   0.990       .  S
O2119      H2160   0.990       .  S
O2119      H2164   0.990       .  S
Zr2120     O2121   2.440       .  S
Zr2120     O2122   2.431       .  S
Zr2120     O2124   2.377       .  S
Zr2120     O2148   2.388       .  S
Zr2120     O2150   2.353       .  S
Zr2120     O2123   2.285       .  S
O2121      H2162   0.990       .  S
O2121      H2165   0.990       .  S
O2122      H2155   0.990       .  S
O2124     Zr2144   2.388       .  S
O2124      H2151   0.961       .  S
O2125     Zr2137   2.549       .  S
O2125      C2127   1.310       .  A
O2126      C2127   1.272       .  A
C2127      C2401   1.494       .  S
O2128     Zr2140   2.387       .  S
O2128      C2130   1.275       .  A
O2129     Zr2143   2.461       .  S
O2129      C2130   1.292       .  A
C2130      C2569   1.468       .  S
O2131     Zr2140   2.403       .  S
O2131      C2133   1.270       .  A
O2132      C2133   1.286       .  A
C2133      C2452   1.510       .  S
O2134     Zr2137   2.535       .  S
O2134      C2136   1.308       .  A
O2135     Zr2143   2.379       .  S
O2135      C2136   1.277       .  A
C2136      C2413   1.498       .  S
Zr2137     O2138   2.435       .  S
Zr2137     O2139   2.436       .  S
Zr2137     O2145   2.367       .  S
Zr2137     O2146   2.381       .  S
Zr2137     O2149   2.375       .  S
O2138      H2158   0.990       .  S
O2138      H2163   0.990       .  S
O2139      H2159   0.990       .  S
Zr2140     O2141   2.437       .  S
Zr2140     O2142   2.424       .  S
Zr2140     O2146   2.361       .  S
Zr2140     O2145   2.366       .  S
O2141      H2157   0.990       .  S
O2142      H2156   0.989       .  S
O2142      H2166   0.990       .  S
Zr2143     O2146   2.368       .  S
Zr2143     O2149   2.407       .  S
Zr2144     O2147   2.414       .  S
Zr2144     O2150   2.383       .  S
O2145      H2153   0.964       .  S
O2148      H2152   0.966       .  S
O2149      H2154   0.965       .  S
O2167     Zr2179   2.399       .  S
O2167      C2169   1.270       .  A
O2168      C2169   1.293       .  A
C2169      C2560   1.482       .  S
O2170     Zr2182   2.514       .  S
O2170      C2172   1.303       .  A
O2171      C2172   1.274       .  A
C2172      C2380   1.482       .  S
O2173     Zr2182   2.545       .  S
O2173      C2175   1.310       .  A
O2174      C2175   1.273       .  A
C2175      C2389   1.495       .  S
O2176     Zr2179   2.393       .  S
O2176      C2178   1.277       .  A
O2177      C2178   1.303       .  A
C2178      C2485   1.500       .  S
Zr2179     O2180   2.439       .  S
Zr2179     O2181   2.429       .  S
Zr2179     O2185   2.350       .  S
Zr2179     O2186   2.375       .  S
O2180      H2223   0.990       .  S
O2181      H2222   0.990       .  S
O2181      H2226   0.988       .  S
Zr2182     O2183   2.433       .  S
Zr2182     O2184   2.438       .  S
Zr2182     O2186   2.387       .  S
Zr2182     O2185   2.348       .  S
O2183      H2224   0.990       .  S
O2183      H2227   0.990       .  S
O2184      H2217   0.990       .  S
O2186      H2213   0.964       .  S
O2187     Zr2199   2.428       .  S
O2187      C2189   1.278       .  A
O2188     Zr2206   2.472       .  S
O2188      C2189   1.288       .  A
C2189      C2473   1.494       .  S
O2190     Zr2202   2.530       .  S
O2190      C2192   1.305       .  A
O2191     Zr2205   2.352       .  S
O2191      C2192   1.274       .  A
C2192      C2365   1.480       .  S
O2193     Zr2202   2.546       .  S
O2193      C2195   1.310       .  A
O2194     Zr2206   2.363       .  S
O2194      C2195   1.276       .  A
C2195      C2353   1.485       .  S
O2196     Zr2199   2.389       .  S
O2196      C2198   1.276       .  A
O2197     Zr2205   2.474       .  S
O2197      C2198   1.295       .  A
C2198      C2545   1.488       .  S
Zr2199     O2200   2.446       .  S
Zr2199     O2201   2.426       .  S
Zr2199     O2207   2.367       .  S
Zr2199     O2208   2.367       .  S
Zr2199     O2211   2.384       .  S
Zr2199     O2209   2.397       .  S
O2200      H2220   0.990       .  S
O2200      H2225   0.986       .  S
O2201      H2221   0.985       .  S
Zr2202     O2203   2.435       .  S
Zr2202     O2204   2.434       .  S
Zr2202     O2208   2.376       .  S
Zr2202     O2207   2.364       .  S
Zr2202     O2212   2.365       .  S
Zr2202     O2210   2.376       .  S
O2203      H2219   0.990       .  S
O2204      H2218   0.990       .  S
O2204      H2228   0.990       .  S
Zr2205     O2208   2.354       .  S
Zr2205     O2210   2.415       .  S
Zr2205     O2211   2.369       .  S
Zr2206     O2207   2.381       .  S
Zr2206     O2209   2.373       .  S
Zr2206     O2212   2.416       .  S
O2207      H2215   0.957       .  S
O2210      H2214   0.965       .  S
O2211      H2216   0.965       .  S
O2229     Zr4881   2.531   1_455  S
O2229      C2231   1.305       .  A
O2230     Zr2267   2.345       .  S
O2230      C2231   1.271       .  A
C2231      C2440   1.483       .  S
O2232     Zr2244   2.428       .  S
O2232      C2234   1.273       .  A
O2233     Zr2268   2.473       .  S
O2233      C2234   1.285       .  A
C2234      C2536   1.494       .  S
O2235     Zr4884   2.397   1_455  S
O2235      C2237   1.280       .  A
O2236     Zr2267   2.436       .  S
O2236      C2237   1.285       .  A
C2237      C2632   1.461       .  S
O2238     Zr2241   2.530       .  S
O2238      C2240   1.305       .  A
O2239     Zr2268   2.349       .  S
O2239      C2240   1.272       .  A
C2240      C2425   1.475       .  S
Zr2241     O4869   2.533       .  S
Zr2241     O2242   2.435       .  S
Zr2241     O2243   2.437       .  S
Zr2241     O2248   2.363       .  S
Zr2241     O2271   2.372       .  S
Zr2241     O4913   2.361       .  S
Zr2241     O4887   2.288       .  S
O2242      H4925   0.990       .  S
O2243      H4924   0.990       .  S
O2243      H2288   0.990       .  S
Zr2244     O4875   2.392       .  S
Zr2244     O2245   2.455       .  S
Zr2244     O2246   2.436       .  S
Zr2244     O2248   2.401       .  S
Zr2244     O4912   2.388       .  S
Zr2244     O2274   2.366       .  S
Zr2244     O4887   2.285       .  S
O2245      H2286   0.989       .  S
O2245      H2289   0.989       .  S
O2246      H2279   0.990       .  S
O2247     Zr4881   2.290       .  S
O2247     Zr4884   2.284       .  S
O2247     Zr2267   2.244   1_655  S
O2248     Zr2268   2.396       .  S
O2248      H2275   0.959       .  S
O2249     Zr2261   2.513       .  S
O2249      C2251   1.303       .  A
O2250     Zr2268   2.353       .  S
O2250      C2251   1.274       .  A
C2251      C2377   1.495       .  S
O2252     Zr4904   2.415   1_455  S
O2252      C2254   1.283       .  A
O2253     Zr2267   2.451       .  S
O2253      C2254   1.288       .  A
C2254      C2620   1.463       .  S
O2255     Zr2264   2.408       .  S
O2255      C2257   1.269       .  A
O2256     Zr2268   2.457       .  S
O2256      C2257   1.281       .  A
C2257      C2521   1.491       .  S
O2258     Zr4901   2.554   1_455  S
O2258      C2260   1.310       .  A
O2259     Zr2267   2.324       .  S
O2259      C2260   1.269       .  A
C2260      C2392   1.496       .  S
Zr2261     O4898   2.565       .  S
Zr2261     O2262   2.436       .  S
Zr2261     O2263   2.437       .  S
Zr2261     O2269   2.407       .  S
Zr2261     O4910   2.343       .  S
Zr2261     O4913   2.372       .  S
Zr2261     O2271   2.379       .  S
O2262      H2282   0.990       .  S
O2262      H2287   0.990       .  S
O2263      H2283   0.990       .  S
Zr2264     O4892   2.413       .  S
Zr2264     O2265   2.432       .  S
Zr2264     O2266   2.437       .  S
Zr2264     O4910   2.348       .  S
Zr2264     O2269   2.398       .  S
Zr2264     O2274   2.385       .  S
Zr2264     O4912   2.384       .  S
O2265      H2281   0.990       .  S
O2266      H2280   0.990       .  S
O2266      H2290   0.990       .  S
Zr2267     O2270   2.337       .  S
Zr2267     O2272   2.369       .  S
Zr2267     O2273   2.398       .  S
Zr2268     O2269   2.403       .  S
Zr2268     O2271   2.411       .  S
Zr2268     O2274   2.385       .  S
O2269      H2277   0.966       .  S
O2270     Zr4901   2.345   1_455  S
O2270     Zr4904   2.354   1_455  S
O2272     Zr4884   2.386   1_455  S
O2272     Zr4904   2.385   1_455  S
O2272      H2276   0.966       .  S
O2273     Zr4881   2.366   1_455  S
O2273     Zr4901   2.370   1_455  S
O2273      H2278   0.966       .  S
H2284      O4883   0.990       .  S
H2285      O4882   0.990       .  S
O2291     Zr4943   2.410   1_455  S
O2291      C2293   1.272       .  A
O2292     Zr2329   2.463       .  S
O2292      C2293   1.284       .  A
C2293      C2608   1.492       .  S
O2294     Zr2306   2.538       .  S
O2294      C2296   1.308       .  A
O2295     Zr2330   2.347       .  S
O2295      C2296   1.273       .  A
C2296      C2404   1.490       .  S
O2297     Zr4946   2.559   1_455  S
O2297      C2299   1.311       .  A
O2298     Zr2329   2.353       .  S
O2298      C2299   1.273       .  A
C2299      C2416   1.510       .  S
O2300     Zr2303   2.413       .  S
O2300      C2302   1.273       .  A
O2301     Zr2330   2.453       .  S
O2301      C2302   1.277       .  A
C2302      C2509   1.496       .  S
Zr2303     O4931   2.424       .  S
Zr2303     O2304   2.437       .  S
Zr2303     O2305   2.441       .  S
Zr2303     O4949   2.391       .  S
Zr2303     O2310   2.373       .  S
Zr2303     O2333   2.408       .  S
Zr2303     O4975   2.400       .  S
O2304      H4987   0.989       .  S
O2305      H2346   0.990       .  S
O2305      H2350   0.989       .  S
Zr2306     O4937   2.540       .  S
Zr2306     O2307   2.436       .  S
Zr2306     O2308   2.434       .  S
Zr2306     O2310   2.375       .  S
Zr2306     O4949   2.386       .  S
Zr2306     O4974   2.379       .  S
Zr2306     O2336   2.386       .  S
O2307      H2348   0.990       .  S
O2307      H2351   0.991       .  S
O2308      H4981   0.990       .  S
O2309     Zr4943   2.390       .  S
O2309     Zr4946   2.390       .  S
O2309     Zr2329   2.383   1_655  S
O2310     Zr2330   2.404       .  S
O2310      H2337   0.964       .  S
O2311     Zr2323   2.431       .  S
O2311      C2313   1.286       .  A
O2312     Zr2330   2.492       .  S
O2312      C2313   1.296       .  A
C2313      C2500   1.499       .  S
O2314     Zr4966   2.533   1_455  S
O2314      C2316   1.307       .  A
O2315     Zr2329   2.367       .  S
O2315      C2316   1.276       .  A
C2316      C2368   1.489       .  S
O2317     Zr2326   2.539       .  S
O2317      C2319   1.306       .  A
O2318     Zr2330   2.331       .  S
O2318      C2319   1.269       .  A
C2319      C2356   1.477       .  S
O2320     Zr4963   2.400   1_455  S
O2320      C2322   1.268       .  A
O2321     Zr2329   2.455       .  S
O2321      C2322   1.282       .  A
C2322      C2593   1.474       .  S
Zr2323     O4960   2.401       .  S
Zr2323     O2324   2.441       .  S
Zr2323     O2325   2.432       .  S
Zr2323     O2331   2.377       .  S
Zr2323     O4975   2.386       .  S
Zr2323     O2333   2.358       .  S
Zr2323     O4972   2.299       .  S
O2324      H2344   0.990       .  S
O2324      H2349   0.990       .  S
O2325      H2345   0.990       .  S
Zr2326     O4954   2.530       .  S
Zr2326     O2327   2.434       .  S
Zr2326     O2328   2.438       .  S
Zr2326     O2331   2.344       .  S
Zr2326     O2336   2.373       .  S
Zr2326     O4974   2.356       .  S
Zr2326     O4972   2.289       .  S
O2327      H2343   0.989       .  S
O2328      H2342   0.990       .  S
O2328      H2352   0.990       .  S
Zr2329     O2334   2.403       .  S
Zr2329     O2335   2.395       .  S
Zr2329     O2332   2.266       .  S
Zr2330     O2331   2.378       .  S
Zr2330     O2333   2.387       .  S
Zr2330     O2336   2.413       .  S
O2331      H2339   0.958       .  S
O2332     Zr4963   2.299   1_455  S
O2332     Zr4966   2.291   1_455  S
O2334     Zr4946   2.376   1_455  S
O2334     Zr4966   2.361   1_455  S
O2334      H2338   0.965       .  S
O2335     Zr4943   2.400   1_455  S
O2335     Zr4963   2.383   1_455  S
O2335      H2340   0.966       .  S
H2341      O4948   0.990       .  S
H2347      O4944   0.990       .  S
C2353      C2354   1.402       .  A
C2353      C2358   1.414       .  A
C2354      C2355   1.407       .  A
C2354      H2359   1.084       .  S
C2355      C2356   1.414       .  A
C2355      O2360   1.373       .  S
C2356      C2357   1.403       .  A
C2357      C2358   1.408       .  A
C2357      H2361   1.084       .  S
C2358      O2362   1.369       .  S
O2360      H2364   0.991       .  S
O2362      H2363   0.992       .  S
C2365      C2366   1.409       .  A
C2365      C2370   1.405       .  A
C2366      C2367   1.403       .  A
C2366      H2371   1.077       .  S
C2367      C2368   1.403       .  A
C2367      O2372   1.370       .  S
C2368      C2369   1.415       .  A
C2369      C2370   1.410       .  A
C2369      H2373   1.084       .  S
C2370      O2374   1.372       .  S
O2372      H2376   0.991       .  S
O2374      H2375   0.992       .  S
C2377      C2378   1.422       .  A
C2377      C2382   1.403       .  A
C2378      C2379   1.400       .  A
C2378      H2383   1.083       .  S
C2379      C2380   1.397       .  A
C2379      O2384   1.371       .  S
C2380      C2381   1.415       .  A
C2381      C2382   1.400       .  A
C2381      H2385   1.082       .  S
C2382      O2386   1.372       .  S
O2384      H2388   0.992       .  S
O2386      H2387   0.992       .  S
C2389      C2390   1.423       .  A
C2389      C2394   1.399       .  A
C2390      C2391   1.411       .  A
C2390      H2395   1.084       .  S
C2391      C2392   1.401       .  A
C2391      O2396   1.371       .  S
C2392      C2393   1.420       .  A
C2393      C2394   1.399       .  A
C2393      H2397   1.083       .  S
C2394      O2398   1.371       .  S
O2396      H2400   0.992       .  S
O2398      H2399   0.992       .  S
C2401      C2402   1.422       .  A
C2401      C2406   1.401       .  A
C2402      C2403   1.405       .  A
C2402      H2407   1.083       .  S
C2403      C2404   1.399       .  A
C2403      O2408   1.371       .  S
C2404      C2405   1.418       .  A
C2405      C2406   1.403       .  A
C2405      H2409   1.083       .  S
C2406      O2410   1.372       .  S
O2408      H2412   0.992       .  S
O2410      H2411   0.992       .  S
C2413      C2414   1.419       .  A
C2413      C2418   1.400       .  A
C2414      C2415   1.412       .  A
C2414      H2419   1.084       .  S
C2415      C2416   1.406       .  A
C2415      O2420   1.370       .  S
C2416      C2417   1.423       .  A
C2417      C2418   1.405       .  A
C2417      H2421   1.083       .  S
C2418      O2422   1.372       .  S
O2420      H2424   0.992       .  S
O2422      H2423   0.992       .  S
C2425      C2426   1.409       .  A
C2425      C2430   1.406       .  A
C2426      C2427   1.405       .  A
C2426      H2431   1.084       .  S
C2427      C2428   1.407       .  A
C2427      O2432   1.372       .  S
C2428      C2429   1.408       .  A
C2429      C2430   1.403       .  A
C2429      H2433   1.084       .  S
C2430      O2434   1.372       .  S
O2432      H2436   0.992       .  S
O2434      H2435   0.992       .  S
C2437      C2438   1.399       .  A
C2437      C2442   1.414       .  A
C2438      C2439   1.405       .  A
C2438      H2443   1.084       .  S
C2439      C2440   1.419       .  A
C2439      O2444   1.373       .  S
C2440      C2441   1.397       .  A
C2441      C2442   1.403       .  A
C2441      H2445   1.079       .  S
C2442      O2446   1.371       .  S
O2444      H2448   0.991       .  S
O2446      H2447   0.991       .  S
C2449      C2450   1.412       .  A
C2449      C2454   1.404       .  A
C2450      C2451   1.418       .  A
C2450      H2455   1.083       .  S
C2451      C2452   1.415       .  A
C2451      O2456   1.371       .  S
C2452      C2453   1.409       .  A
C2453      C2454   1.398       .  A
C2453      H2457   1.077       .  S
C2454      O2458   1.373       .  S
O2456      H2460   0.991       .  S
O2458      H2459   0.991       .  S
C2461      C2462   1.417       .  A
C2461      C2466   1.400       .  A
C2462      C2463   1.410       .  A
C2462      H2467   1.084       .  S
C2463      C2464   1.403       .  A
C2463      O2468   1.370       .  S
C2464      C2465   1.415       .  A
C2465      C2466   1.396       .  A
C2465      H2469   1.083       .  S
C2466      O2470   1.372       .  S
O2468      H2472   0.991       .  S
O2470      H2471   0.992       .  S
C2473      C2474   1.415       .  A
C2473      C2478   1.399       .  A
C2474      C2475   1.414       .  A
C2474      H2479   1.080       .  S
C2475      C2476   1.408       .  A
C2475      O2480   1.370       .  S
C2476      C2477   1.418       .  A
C2477      C2478   1.403       .  A
C2477      H2481   1.080       .  S
C2478      O2482   1.371       .  S
O2480      H2484   0.992       .  S
O2482      H2483   0.991       .  S
C2485      C2486   1.420       .  A
C2485      C2490   1.399       .  A
C2486      C2487   1.408       .  A
C2486      H2491   1.084       .  S
C2487      C2488   1.403       .  A
C2487      O2492   1.372       .  S
C2488      C2489   1.422       .  A
C2489      C2490   1.406       .  A
C2489      H2493   1.083       .  S
C2490      O2494   1.371       .  S
O2492      H2496   0.992       .  S
O2494      H2495   0.992       .  S
C2497      C2498   1.419       .  A
C2497      C2502   1.400       .  A
C2498      C2499   1.422       .  A
C2498      H2503   1.082       .  S
C2499      C2500   1.409       .  A
C2499      O2504   1.371       .  S
C2500      C2501   1.410       .  A
C2501      C2502   1.394       .  A
C2501      H2505   1.082       .  S
C2502      O2506   1.373       .  S
O2504      H2508   0.991       .  S
O2506      H2507   0.992       .  S
C2509      C2510   1.415       .  A
C2509      C2514   1.406       .  A
C2510      C2511   1.416       .  A
C2510      H2515   1.081       .  S
C2511      C2512   1.407       .  A
C2511      O2516   1.370       .  S
C2512      C2513   1.409       .  A
C2513      C2514   1.397       .  A
C2513      H2517   1.080       .  S
C2514      O2518   1.372       .  S
O2516      H2520   0.992       .  S
O2518      H2519   0.992       .  S
C2521      C2522   1.409       .  A
C2521      C2526   1.410       .  A
C2522      C2523   1.414       .  A
C2522      H2527   1.083       .  S
C2523      C2524   1.414       .  A
C2523      O2528   1.370       .  S
C2524      C2525   1.406       .  A
C2525      C2526   1.393       .  A
C2525      H2529   1.083       .  S
C2526      O2530   1.372       .  S
O2528      H2532   0.991       .  S
O2530      H2531   0.992       .  S
C2533      C2534   1.411       .  A
C2533      C2538   1.402       .  A
C2534      C2535   1.408       .  A
C2534      H2539   1.079       .  S
C2535      C2536   1.402       .  A
C2535      O2540   1.371       .  S
C2536      C2537   1.411       .  A
C2537      C2538   1.401       .  A
C2537      H2541   1.079       .  S
C2538      O2542   1.372       .  S
O2540      H2544   0.992       .  S
O2542      H2543   0.992       .  S
C2545      C2546   1.395       .  A
C2545      C2550   1.425       .  A
C2546      C2547   1.400       .  A
C2546      H2551   1.084       .  S
C2547      C2548   1.423       .  A
C2547      O2552   1.370       .  S
C2548      C2549   1.393       .  A
C2549      C2550   1.399       .  A
C2549      H2553   1.084       .  S
C2550      O2554   1.370       .  S
O2552      H2556   0.990       .  S
O2554      H2555   0.991       .  S
C2557      C2558   1.397       .  A
C2557      C2562   1.432       .  A
C2558      C2559   1.405       .  A
C2558      H2563   1.082       .  S
C2559      C2560   1.418       .  A
C2559      O2564   1.372       .  S
C2560      C2561   1.393       .  A
C2561      C2562   1.403       .  A
C2561      H2565   1.084       .  S
C2562      O2566   1.373       .  S
O2564      H2568   0.992       .  S
O2566      H2567   0.992       .  S
C2569      C2570   1.410       .  A
C2569      C2574   1.399       .  A
C2570      C2571   1.407       .  A
C2570      H2575   1.083       .  S
C2571      C2572   1.405       .  A
C2571      O2576   1.371       .  S
C2572      C2573   1.414       .  A
C2573      C2574   1.397       .  A
C2573      H2577   1.084       .  S
C2574      O2578   1.372       .  S
O2576      H2580   0.991       .  S
O2578      H2579   0.992       .  S
C2581      C2582   1.409       .  A
C2581      C2586   1.412       .  A
C2582      C2583   1.414       .  A
C2582      H2587   1.082       .  S
C2583      C2584   1.409       .  A
C2583      O2588   1.371       .  S
C2584      C2585   1.406       .  A
C2585      C2586   1.401       .  A
C2585      H2589   1.084       .  S
C2586      O2590   1.372       .  S
O2588      H2592   0.992       .  S
O2590      H2591   0.992       .  S
C2593      C2594   1.412       .  A
C2593      C2598   1.399       .  A
C2594      C2595   1.414       .  A
C2594      H2599   1.083       .  S
C2595      C2596   1.405       .  A
C2595      O2600   1.372       .  S
C2596      C2597   1.412       .  A
C2597      C2598   1.394       .  A
C2597      H2601   1.083       .  S
C2598      O2602   1.372       .  S
O2600      H2604   0.992       .  S
O2602      H2603   0.992       .  S
C2605      C2606   1.412       .  A
C2605      C2610   1.402       .  A
C2606      C2607   1.414       .  A
C2606      H2611   1.083       .  S
C2607      C2608   1.410       .  A
C2607      O2612   1.370       .  S
C2608      C2609   1.405       .  A
C2609      C2610   1.391       .  A
C2609      H2613   1.075   1_455  S
C2610      O2614   1.370   1_455  S
O2612      H2616   0.991       .  S
O2614      H2615   0.991       .  S
C2617      C2618   1.397       .  A
C2617      C2622   1.417       .  A
C2618      C2619   1.405       .  A
C2618      H2623   1.083       .  S
C2619      C2620   1.416       .  A
C2619      O2624   1.371       .  S
C2620      C2621   1.384       .  A
C2621      C2622   1.393       .  A
C2621      H2625   1.085       .  S
C2622      O2626   1.370       .  S
O2624      H2628   0.992       .  S
O2626      H2627   0.992       .  S
C2629      C2630   1.391       .  A
C2629      C2634   1.415       .  A
C2630      C2631   1.395       .  A
C2630      H2635   1.084       .  S
C2631      C2632   1.412       .  A
C2631      O2636   1.371       .  S
C2632      C2633   1.395       .  A
C2633      C2634   1.400       .  A
C2633      H2637   1.084       .  S
C2634      O2638   1.375       .  S
O2636      H2640   0.992       .  S
O2638      H2639   0.991       .  S
O2641     Zr2653   2.544       .  S
O2641      C2643   1.307       .  A
O2642     Zr3339   2.346   1_554  S
O2642      C2643   1.272       .  A
C2643      C3244   1.480       .  S
O2644     Zr2656   2.428       .  S
O2644      C2646   1.276       .  A
O2645     Zr2680   2.441   1_554  S
O2645      C2646   1.281       .  A
C2646      C3265   1.485       .  S
O2647     Zr2656   2.403       .  S
O2647      C2649   1.281       .  A
O2648     Zr3339   2.446   1_554  S
O2648      C2649   1.289       .  A
C2649      C3289   1.465       .  S
O2650     Zr2653   2.509       .  S
O2650      C2652   1.301       .  A
O2651     Zr2680   2.373   1_554  S
O2651      C2652   1.277       .  A
C2652      C3232   1.485       .  S
Zr2653     O2654   2.433       .  S
Zr2653     O2655   2.436       .  S
Zr2653     O2659   2.350       .  S
Zr2653     O2660   2.394       .  S
Zr2653     O3343   2.375   1_554  S
Zr2653     O3345   2.370   1_554  S
O2654      H2697   0.990       .  S
O2655      H2696   0.990       .  S
O2655      H2700   0.990       .  S
Zr2656     O2657   2.433       .  S
Zr2656     O2658   2.436       .  S
Zr2656     O2660   2.393       .  S
Zr2656     O2659   2.356       .  S
Zr2656     O2684   2.382   1_554  S
Zr2656     O2686   2.385   1_554  S
O2657      H2698   0.989       .  S
O2657      H2701   0.988       .  S
O2658      H2691   0.990       .  S
O2659     Zr3339   2.343   1_554  S
O2660     Zr2680   2.394   1_554  S
O2660      H2687   0.963       .  S
O2661     Zr2673   2.524       .  S
O2661      C2663   1.304       .  A
O2662     Zr3340   2.330       .  S
O2662      C2663   1.269       .  A
C2663      C3208   1.481       .  S
O2664     Zr2676   2.393       .  S
O2664      C2666   1.278       .  A
O2665     Zr2679   2.467       .  S
O2665      C2666   1.292       .  A
C2666      C3277   1.476       .  S
O2667     Zr2676   2.446       .  S
O2667      C2669   1.286       .  A
O2668     Zr3340   2.459       .  S
O2668      C2669   1.291       .  A
C2669      C3256   1.484       .  S
O2670     Zr2673   2.531       .  S
O2670      C2672   1.301       .  A
O2671     Zr2679   2.358       .  S
O2671      C2672   1.263       .  A
C2672      C3217   1.503       .  S
Zr2673     O2674   2.436       .  S
Zr2673     O2675   2.435       .  S
Zr2673     O2681   2.356       .  S
Zr2673     O2685   2.362       .  S
Zr2673     O2683   2.380       .  S
Zr2673     O2682   2.282       .  S
O2674      H2694   0.990       .  S
O2674      H2699   0.990       .  S
O2675      H2695   0.990       .  S
Zr2676     O2677   2.440       .  S
Zr2676     O2678   2.438       .  S
Zr2676     O2681   2.374       .  S
Zr2676     O3346   2.365       .  S
Zr2676     O3344   2.387       .  S
Zr2676     O2682   2.280       .  S
O2677      H2693   0.990       .  S
O2678      H2692   0.989       .  S
O2678      H2702   0.989       .  S
Zr2679     O3302   2.351       .  S
Zr2679     O3308   2.443       .  S
Zr2679     O3319   2.351       .  S
Zr2679     O3344   2.376       .  S
Zr2679     O2685   2.413       .  S
Zr2679     O2682   2.250       .  S
Zr2680     O3322   2.340       .  S
Zr2680     O3328   2.467       .  S
Zr2680     O3341   2.377       .  S
Zr2680     O3343   2.403       .  S
Zr2680     O2686   2.379       .  S
O2681     Zr3340   2.374       .  S
O2681      H2689   0.957       .  S
O2683     Zr3313   2.381       .  S
O2683     Zr3340   2.408       .  S
O2684     Zr3336   2.387       .  S
O2684     Zr3339   2.372       .  S
O2684      H2688   0.967       .  S
O2685     Zr3313   2.376       .  S
O2685      H2690   0.966       .  S
O2686     Zr3336   2.373       .  S
O2703     Zr2715   2.418       .  S
O2703      C2705   1.282       .  A
O2704     Zr3401   2.471   1_554  S
O2704      C2705   1.293       .  A
C2705      C3193   1.474       .  S
O2706     Zr2718   2.546       .  S
O2706      C2708   1.309       .  A
O2707     Zr3402   2.332       .  S
O2707      C2708   1.274       .  A
C2708      C3109   1.473       .  S
O2709     Zr2718   2.524       .  S
O2709      C2711   1.305       .  A
O2710     Zr2741   2.366       .  S
O2710      C3371   1.276       .  A
C2711      O3370   1.278       .  A
C2711      C3121   1.495       .  S
O2712     Zr2715   2.433       .  S
O2712      C2714   1.276       .  A
O2713     Zr3402   2.480       .  S
O2713      C2714   1.290       .  A
C2714      C3172   1.496       .  S
Zr2715     O2716   2.444       .  S
Zr2715     O2717   2.429       .  S
Zr2715     O2721   2.367       .  S
Zr2715     O2722   2.373       .  S
Zr2715     O3405   2.370   1_554  S
Zr2715     O3407   2.372   1_554  S
O2716      H2759   0.990       .  S
O2717      H2758   0.987       .  S
O2717      H2762   0.990       .  S
Zr2718     O2719   2.436       .  S
Zr2718     O2720   2.433       .  S
Zr2718     O2722   2.359       .  S
Zr2718     O2721   2.361       .  S
Zr2718     O3406   2.378   1_554  S
Zr2718     O3408   2.365       .  S
O2719      H2760   0.990       .  S
O2719      H2763   0.990       .  S
O2720      H2753   0.990       .  S
O2721     Zr3401   2.352   1_554  S
O2722     Zr3402   2.367       .  S
O2722      H2749   0.958       .  S
O2723     Zr2735   2.432       .  S
O2723      C2725   1.278       .  A
O2724     Zr2742   2.460       .  S
O2724      C2725   1.283       .  A
C2725      C3157   1.497       .  S
O2726     Zr2738   2.539       .  S
O2726      C2728   1.308       .  A
O2727     Zr2741   2.349       .  S
O2727      C2728   1.273       .  A
C2728      C3148   1.500       .  S
O2729     Zr2738   2.522       .  S
O2729      C2731   1.293       .  A
O2730     Zr2742   2.384       .  S
O2730      C2731   1.263       .  A
C2731      C3136   1.508       .  S
O2732     Zr2735   2.411       .  S
O2732      C2734   1.273       .  A
O2733     Zr2741   2.463       .  S
O2733      C2734   1.284       .  A
C2734      C3184   1.496       .  S
Zr2735     O2736   2.443       .  S
Zr2735     O2737   2.437       .  S
Zr2735     O2743   2.374       .  S
Zr2735     O2744   2.386       .  S
Zr2735     O2747   2.419       .  S
Zr2735     O2745   2.393       .  S
O2736      H2756   0.988       .  S
O2736      H2761   0.989       .  S
O2737      H2757   0.989       .  S
Zr2738     O2739   2.434       .  S
Zr2738     O2740   2.434       .  S
Zr2738     O2744   2.378       .  S
Zr2738     O2743   2.389       .  S
Zr2738     O2748   2.398       .  S
Zr2738     O2746   2.385       .  S
O2739      H2755   0.990       .  S
O2740      H2754   0.990       .  S
O2740      H2764   0.990       .  S
Zr2741     O3364   2.465       .  S
Zr2741     O2744   2.384       .  S
Zr2741     O2746   2.408       .  S
Zr2741     O2747   2.384       .  S
Zr2741     O3381   2.245       .  S
Zr2742     O3367   2.322       .  S
Zr2742     O3373   2.484       .  S
Zr2742     O3382   2.384       .  S
Zr2742     O2743   2.416       .  S
Zr2742     O2745   2.385       .  S
Zr2742     O2748   2.413       .  S
O2743      H2751   0.963       .  S
O2745     Zr3375   2.361       .  S
O2746     Zr3378   2.381       .  S
O2746      H2750   0.965       .  S
O2747     Zr3375   2.370       .  S
O2747      H2752   0.967       .  S
O2748     Zr3378   2.363       .  S
O2765     Zr2777   2.533       .  S
O2765      C2767   1.306       .  A
O2766     Zr4123   2.336   1_545  S
O2766      C2767   1.272       .  A
C2767      C3097   1.475       .  S
O2768     Zr2780   2.410       .  S
O2768      C2770   1.280       .  A
O2769     Zr2804   2.491   1_545  S
O2769      C2770   1.297       .  A
C2770      C3124   1.492       .  S
O2771     Zr2780   2.399       .  S
O2771      C2773   1.272       .  A
O2772     Zr4123   2.470   1_545  S
O2772      C2773   1.287       .  A
C2773      C3241   1.495       .  S
O2774     Zr2777   2.532       .  S
O2774      C2776   1.305       .  A
O2775     Zr2804   2.337   1_545  S
O2775      C2776   1.271       .  A
C2776      C3088   1.472       .  S
Zr2777     O2778   2.434       .  S
Zr2777     O2779   2.438       .  S
Zr2777     O2784   2.355       .  S
Zr2777     O2807   2.374       .  S
Zr2777     O4129   2.359   1_545  S
Zr2777     O2783   2.282       .  S
O2778      H2821   0.990       .  S
O2779      H2820   0.990       .  S
O2779      H2824   0.990       .  S
Zr2780     O2781   2.440       .  S
Zr2780     O2782   2.433       .  S
Zr2780     O2784   2.378       .  S
Zr2780     O2808   2.400   1_545  S
Zr2780     O2810   2.357   1_545  S
Zr2780     O2783   2.283       .  S
O2781      H2822   0.990       .  S
O2781      H2825   0.990       .  S
O2782      H2815   0.990   1_554  S
O2783     Zr4123   2.251   1_545  S
O2784     Zr2804   2.385   1_545  S
O2784      H2811   0.961       .  S
O2785     Zr2797   2.548       .  S
O2785      C2787   1.310       .  A
O2786     Zr4124   2.351       .  S
O2786      C2787   1.274       .  A
C2787      C3061   1.499       .  S
O2788     Zr2800   2.389       .  S
O2788      C2790   1.275       .  A
O2789     Zr2803   2.464       .  S
O2789      C2790   1.293       .  A
C2790      C3229   1.471       .  S
O2791     Zr2800   2.410       .  S
O2791      C2793   1.272       .  A
O2792     Zr4124   2.482       .  S
O2792      C2793   1.286       .  A
C2793      C3112   1.508       .  S
O2794     Zr2797   2.540       .  S
O2794      C2796   1.309       .  A
O2795     Zr2803   2.368       .  S
O2795      C2796   1.275       .  A
C2796      C3073   1.496       .  S
Zr2797     O2798   2.436       .  S
Zr2797     O2799   2.435       .  S
Zr2797     O2805   2.363       .  S
Zr2797     O2806   2.379       .  S
Zr2797     O2809   2.372       .  S
Zr2797     O4127   2.383       .  S
O2798      H2818   0.990       .  S
O2798      H2823   0.990       .  S
O2799      H2819   0.990       .  S
Zr2800     O2801   2.436       .  S
Zr2800     O2802   2.426       .  S
Zr2800     O2806   2.363       .  S
Zr2800     O2805   2.363       .  S
Zr2800     O4130   2.401       .  S
Zr2800     O4128   2.395       .  S
O2801      H2817   0.990       .  S
O2802      H2816   0.989       .  S
O2802      H2826   0.990       .  S
Zr2803     O4086   2.354       .  S
Zr2803     O4092   2.466       .  S
Zr2803     O2806   2.368       .  S
Zr2803     O4128   2.376       .  S
Zr2803     O2809   2.409       .  S
Zr2803     O4103   2.251       .  S
Zr2804     O4106   2.351       .  S
Zr2804     O4112   2.467       .  S
Zr2804     O4125   2.401       .  S
Zr2804     O2807   2.415   1_565  S
Zr2804     O2810   2.381       .  S
O2805     Zr4124   2.400       .  S
O2805      H2813   0.964       .  S
O2807     Zr4117   2.379   1_545  S
O2808     Zr4120   2.394       .  S
O2808     Zr4123   2.375       .  S
O2808      H2812   0.965       .  S
O2809     Zr4097   2.355       .  S
O2809      H2814   0.965       .  S
O2810     Zr4120   2.402       .  S
O2827     Zr2839   2.397       .  S
O2827      C2829   1.271       .  A
O2828     Zr4185   2.510   1_545  S
O2828      C2829   1.297       .  A
C2829      C3220   1.480       .  S
O2830     Zr2842   2.527       .  S
O2830      C2832   1.306       .  A
O2831     Zr4186   2.349   1_545  S
O2831      C2832   1.274       .  A
C2832      C3040   1.489       .  S
O2833     Zr2842   2.558       .  S
O2833      C2835   1.313       .  A
O2834     Zr4185   2.333       .  S
O2834      C2835   1.271   1_565  A
C2835      C3049   1.499       .  S
O2836     Zr2839   2.385       .  S
O2836      C2838   1.275       .  A
O2837     Zr4186   2.499   1_545  S
O2837      C2838   1.300       .  A
C2838      C3145   1.494       .  S
Zr2839     O2840   2.439       .  S
Zr2839     O2841   2.428       .  S
Zr2839     O2845   2.349       .  S
Zr2839     O2846   2.375       .  S
Zr2839     O4189   2.383   1_545  S
Zr2839     O4191   2.386   1_545  S
O2840      H2883   0.990       .  S
O2841      H2882   0.990       .  S
O2841      H2886   0.988       .  S
Zr2842     O2843   2.435       .  S
Zr2842     O2844   2.434       .  S
Zr2842     O2846   2.386       .  S
Zr2842     O2845   2.347       .  S
Zr2842     O4190   2.363   1_545  S
Zr2842     O4192   2.371   1_545  S
O2843      H2884   0.990       .  S
O2843      H2887   0.990       .  S
O2844      H2877   0.990   1_545  S
O2845     Zr4185   2.351   1_545  S
O2846     Zr4186   2.374   1_545  S
O2846      H2873   0.964       .  S
O2847     Zr2859   2.426       .  S
O2847      C2849   1.276       .  A
O2848     Zr2866   2.478       .  S
O2848      C2849   1.289       .  A
C2849      C3133   1.496       .  S
O2850     Zr2862   2.528       .  S
O2850      C2852   1.304       .  A
O2851     Zr2865   2.341       .  S
O2851      C2852   1.272       .  A
C2852      C3025   1.473       .  S
O2853     Zr2862   2.543       .  S
O2853      C2855   1.309       .  A
O2854     Zr2866   2.374       .  S
O2854      C2855   1.277       .  A
C2855      C3013   1.489       .  S
O2856     Zr2859   2.388       .  S
O2856      C2858   1.276       .  A
O2857     Zr2865   2.454       .  S
O2857      C2858   1.291       .  A
C2858      C3205   1.479       .  S
Zr2859     O2860   2.447       .  S
Zr2859     O2861   2.428       .  S
Zr2859     O2867   2.366       .  S
Zr2859     O2871   2.380       .  S
Zr2859     O2869   2.392       .  S
Zr2859     O2868   2.268       .  S
O2860      H2880   0.990       .  S
O2860      H2885   0.988       .  S
O2861      H2881   0.987       .  S
Zr2862     O2863   2.435       .  S
Zr2862     O2864   2.436       .  S
Zr2862     O2867   2.359       .  S
Zr2862     O2872   2.365       .  S
Zr2862     O2870   2.376       .  S
Zr2862     O2868   2.283       .  S
O2863      H2879   0.990       .  S
O2864      H2878   0.990       .  S
O2864      H2888   0.990       .  S
Zr2865     O4148   2.499       .  S
Zr2865     O4154   2.343       .  S
Zr2865     O4165   2.352       .  S
Zr2865     O2870   2.417       .  S
Zr2865     O2871   2.366       .  S
Zr2865     O2868   2.247       .  S
Zr2866     O4151   2.347       .  S
Zr2866     O4157   2.506       .  S
Zr2866     O4166   2.382       .  S
Zr2866     O2867   2.389       .  S
Zr2866     O2869   2.376       .  S
Zr2866     O2872   2.420       .  S
O2867      H2875   0.954       .  S
O2869     Zr4159   2.387       .  S
O2870     Zr4162   2.364       .  S
O2870      H2874   0.964       .  S
O2871     Zr4159   2.391       .  S
O2871      H2876   0.965       .  S
O2872     Zr4162   2.378       .  S
O2889      C2891   1.302       .  A
O2890     Zr2927   2.341       .  S
O2890      C2891   1.270       .  A
C2891      C3100   1.481       .  S
O2892     Zr2904   2.422       .  S
O2892      C2894   1.272       .  A
O2893     Zr2928   2.463       .  S
O2893      C2894   1.284       .  A
C2894      C3196   1.488       .  S
O2895      C2897   1.280       .  A
O2896     Zr2927   2.431       .  S
O2896      C2897   1.283       .  A
C2897      C3292   1.460       .  S
O2898     Zr2901   2.532       .  S
O2898      C2900   1.305       .  A
O2899     Zr2928   2.347       .  S
O2899      C2900   1.272       .  A
C2900      C3085   1.477       .  S
Zr2901     O2902   2.435       .  S
Zr2901     O2903   2.437       .  S
Zr2901     O2908   2.360       .  S
Zr2901     O2931   2.371       .  S
O2903      H2948   0.990       .  S
Zr2904     O2905   2.455       .  S
Zr2904     O2906   2.439   1_655  S
Zr2904     O2908   2.407       .  S
Zr2904     O2934   2.370       .  S
O2905      H2946   0.989       .  S
O2905      H2949   0.989       .  S
O2906      H2939   0.990       .  S
O2907     Zr2927   2.243       .  S
O2908     Zr2928   2.394       .  S
O2908      H2935   0.959       .  S
O2909     Zr2921   2.510       .  S
O2909      C2911   1.302       .  A
O2910     Zr2928   2.360       .  S
O2910      C2911   1.275       .  A
C2911      C3037   1.497       .  S
O2912      C2914   1.281       .  A
O2913     Zr2927   2.447       .  S
O2913      C2914   1.287       .  A
C2914      C3280   1.463       .  S
O2915     Zr2924   2.413       .  S
O2915      C2917   1.272       .  A
O2916     Zr2928   2.451       .  S
O2916      C2917   1.281       .  A
C2917      C3181   1.491       .  S
O2918      C2920   1.311       .  A
O2919     Zr2927   2.318       .  S
O2919      C2920   1.267       .  A
C2920      C3052   1.498       .  S
Zr2921     O2922   2.436       .  S
Zr2921     O2923   2.434       .  S
Zr2921     O2929   2.405       .  S
Zr2921     O2931   2.378       .  S
O2922      H2942   0.990       .  S
O2922      H2947   0.990       .  S
O2923      H2943   0.990       .  S
Zr2924     O2925   2.433       .  S
Zr2924     O2926   2.438   1_655  S
Zr2924     O2929   2.394       .  S
Zr2924     O2934   2.377       .  S
O2925      H2941   0.990       .  S
O2926      H2940   0.990   1_455  S
O2926      H2950   0.990       .  S
Zr2927     O2930   2.339       .  S
Zr2927     O2932   2.367       .  S
Zr2927     O2933   2.399       .  S
Zr2928     O2929   2.396       .  S
Zr2928     O2931   2.407       .  S
Zr2928     O2934   2.385       .  S
O2929      H2937   0.966       .  S
O2932      H2936   0.966       .  S
O2933      H2938   0.966       .  S
O2951      C2953   1.271       .  A
O2952     Zr2989   2.460       .  S
O2952      C2953   1.282       .  A
C2953      C3268   1.492       .  S
O2954     Zr2966   2.550       .  S
O2954      C2956   1.310       .  A
O2955     Zr2990   2.355       .  S
O2955      C2956   1.274       .  A
C2956      C3064   1.497       .  S
O2957      C2959   1.309       .  A
O2958     Zr2989   2.350       .  S
O2958      C2959   1.273       .  A
C2959      C3076   1.508       .  S
O2960     Zr2963   2.414       .  S
O2960      C2962   1.274       .  A
O2961     Zr2990   2.447       .  S
O2961      C2962   1.276       .  A
C2962      C3169   1.492       .  S
Zr2963     O2964   2.438       .  S
Zr2963     O2965   2.443       .  S
Zr2963     O2970   2.375       .  S
Zr2963     O2993   2.410       .  S
O2965      H3006   0.990       .  S
O2965      H3010   0.989       .  S
Zr2966     O2967   2.436       .  S
Zr2966     O2968   2.436       .  S
Zr2966     O2970   2.373       .  S
Zr2966     O2996   2.388       .  S
O2967      H3008   0.990       .  S
O2967      H3011   0.990       .  S
O2969     Zr2989   2.390       .  S
O2970     Zr2990   2.410       .  S
O2970      H2997   0.961       .  S
O2971     Zr2983   2.431       .  S
O2971      C2973   1.287       .  A
O2972     Zr2990   2.495       .  S
O2972      C2973   1.297       .  A
C2973      C3160   1.501       .  S
O2974      C2976   1.303       .  A
O2975     Zr2989   2.372       .  S
O2975      C2976   1.276       .  A
C2976      C3028   1.481       .  S
O2977     Zr2986   2.534       .  S
O2977      C2979   1.305       .  A
O2978     Zr2990   2.334       .  S
O2978      C2979   1.269       .  A
C2979      C3016   1.476       .  S
O2980      C2982   1.269       .  A
O2981     Zr2989   2.463       .  S
O2981      C2982   1.283       .  A
C2982      C3253   1.481       .  S
Zr2983     O2984   2.439       .  S
Zr2983     O2985   2.435       .  S
Zr2983     O2991   2.382       .  S
Zr2983     O2993   2.352       .  S
O2984      H3004   0.990       .  S
O2984      H3009   0.990       .  S
O2985      H3005   0.990       .  S
Zr2986     O2987   2.435       .  S
Zr2986     O2988   2.437       .  S
Zr2986     O2991   2.346       .  S
Zr2986     O2996   2.373       .  S
O2987      H3003   0.990   1_655  S
O2988      H3002   0.990   1_655  S
O2988      H3012   0.990       .  S
Zr2989     O2994   2.405       .  S
Zr2989     O2995   2.400       .  S
Zr2989     O2992   2.261       .  S
Zr2990     O2991   2.381       .  S
Zr2990     O2993   2.390       .  S
Zr2990     O2996   2.412       .  S
O2991      H2999   0.960       .  S
O2994      H2998   0.965       .  S
O2995      H3000   0.967       .  S
C3013      C3014   1.404       .  A
C3013      C3018   1.412       .  A
C3014      C3015   1.409       .  A
C3014      H3019   1.083       .  S
C3015      C3016   1.412       .  A
C3015      O3020   1.372       .  S
C3016      C3017   1.404       .  A
C3017      C3018   1.407       .  A
C3017      H3021   1.084       .  S
C3018      O3022   1.367       .  S
O3020      H3024   0.991       .  S
O3022      H3023   0.992       .  S
C3025      C3026   1.407       .  A
C3025      C3030   1.409       .  A
C3026      C3027   1.402       .  A
C3026      H3031   1.080       .  S
C3027      C3028   1.402       .  A
C3027      O3032   1.371       .  S
C3028      C3029   1.411       .  A
C3029      C3030   1.407       .  A
C3029      H3033   1.084       .  S
C3030      O3034   1.373       .  S
O3032      H3036   0.992       .  S
O3034      H3035   0.992       .  S
C3037      C3038   1.421       .  A
C3037      C3042   1.403       .  A
C3038      C3039   1.402       .  A
C3038      H3043   1.083       .  S
C3039      C3040   1.398       .  A
C3039      O3044   1.371       .  S
C3040      C3041   1.418       .  A
C3041      C3042   1.401       .  A
C3041      H3045   1.083       .  S
C3042      O3046   1.372       .  S
O3044      H3048   0.991       .  S
O3046      H3047   0.992       .  S
C3049      C3050   1.426       .  A
C3049      C3054   1.398       .  A
C3050      C3051   1.410       .  A
C3050      H3055   1.083   1_545  S
C3051      C3052   1.399       .  A
C3051      O3056   1.371       .  S
C3052      C3053   1.423       .  A
C3053      C3054   1.400       .  A
C3053      H3057   1.083       .  S
C3054      O3058   1.371       .  S
O3056      H3060   0.992   1_545  S
O3058      H3059   0.992       .  S
C3061      C3062   1.422       .  A
C3061      C3066   1.403       .  A
C3062      C3063   1.408       .  A
C3062      H3067   1.084       .  S
C3063      C3064   1.400       .  A
C3063      O3068   1.371       .  S
C3064      C3065   1.419       .  A
C3065      C3066   1.406       .  A
C3065      H3069   1.083       .  S
C3066      O3070   1.372       .  S
O3068      H3072   0.992       .  S
O3070      H3071   0.992       .  S
C3073      C3074   1.421       .  A
C3073      C3078   1.398       .  A
C3074      C3075   1.413       .  A
C3074      H3079   1.084       .  S
C3075      C3076   1.406       .  A
C3075      O3080   1.371       .  S
C3076      C3077   1.423       .  A
C3077      C3078   1.401       .  A
C3077      H3081   1.083       .  S
C3078      O3082   1.371       .  S
O3080      H3084   0.992       .  S
O3082      H3083   0.992       .  S
C3085      C3086   1.409       .  A
C3085      C3090   1.405       .  A
C3086      C3087   1.406       .  A
C3086      H3091   1.083       .  S
C3087      C3088   1.407       .  A
C3087      O3092   1.372       .  S
C3088      C3089   1.409       .  A
C3089      C3090   1.404       .  A
C3089      H3093   1.083       .  S
C3090      O3094   1.371       .  S
O3092      H3096   0.992       .  S
O3094      H3095   0.991       .  S
C3097      C3098   1.396       .  A
C3097      C3102   1.417       .  A
C3098      C3099   1.401       .  A
C3098      H3103   1.084       .  S
C3099      C3100   1.419       .  A
C3099      O3104   1.373       .  S
C3100      C3101   1.397       .  A
C3101      C3102   1.403       .  A
C3101      H3105   1.080       .  S
C3102      O3106   1.372       .  S
O3104      H3108   0.991       .  S
O3106      H3107   0.992       .  S
C3109      C3110   1.412       .  A
C3109      C3114   1.401       .  A
C3110      C3111   1.416       .  A
C3110      H3115   1.080       .  S
C3111      C3112   1.414       .  A
C3111      O3116   1.371       .  S
C3112      C3113   1.408       .  A
C3113      C3114   1.397       .  A
C3113      H3117   1.075       .  S
C3114      O3118   1.372       .  S
O3116      H3120   0.992       .  S
O3118      H3119   0.991       .  S
C3121      C3122   1.420       .  A
C3121      C3126   1.402       .  A
C3122      C3123   1.410       .  A
C3122      H3127   1.083       .  S
C3123      C3124   1.402       .  A
C3123      O3128   1.370       .  S
C3124      C3125   1.415       .  A
C3125      C3126   1.401       .  A
C3125      H3129   1.084       .  S
C3126      O3130   1.372       .  S
O3128      H3132   0.991       .  S
O3130      H3131   0.991       .  S
C3133      C3134   1.415       .  A
C3133      C3138   1.400       .  A
C3134      C3135   1.413       .  A
C3134      H3139   1.077       .  S
C3135      C3136   1.406       .  A
C3135      O3140   1.371       .  S
C3136      C3137   1.419       .  A
C3137      C3138   1.403       .  A
C3137      H3141   1.080       .  S
C3138      O3142   1.371       .  S
O3140      H3144   0.992       .  S
O3142      H3143   0.992       .  S
C3145      C3146   1.420       .  A
C3145      C3150   1.397       .  A
C3146      C3147   1.406       .  A
C3146      H3151   1.084       .  S
C3147      C3148   1.401       .  A
C3147      O3152   1.371       .  S
C3148      C3149   1.423       .  A
C3149      C3150   1.404       .  A
C3149      H3153   1.083       .  S
C3150      O3154   1.371       .  S
O3152      H3156   0.992       .  S
O3154      H3155   0.992       .  S
C3157      C3158   1.419       .  A
C3157      C3162   1.403       .  A
C3158      C3159   1.423       .  A
C3158      H3163   1.083       .  S
C3159      C3160   1.411       .  A
C3159      O3164   1.371       .  S
C3160      C3161   1.410       .  A
C3161      C3162   1.395       .  A
C3161      H3165   1.084       .  S
C3162      O3166   1.374       .  S
O3164      H3168   0.992       .  S
O3166      H3167   0.992       .  S
C3169      C3170   1.415       .  A
C3169      C3174   1.402       .  A
C3170      C3171   1.417       .  A
C3170      H3175   1.081       .  S
C3171      C3172   1.409       .  A
C3171      O3176   1.371       .  S
C3172      C3173   1.408       .  A
C3173      C3174   1.394       .  A
C3173      H3177   1.080       .  S
C3174      O3178   1.372       .  S
O3176      H3180   0.992       .  S
O3178      H3179   0.992       .  S
C3181      C3182   1.409       .  A
C3181      C3186   1.409       .  A
C3182      C3183   1.415       .  A
C3182      H3187   1.083       .  S
C3183      C3184   1.414       .  A
C3183      O3188   1.369       .  S
C3184      C3185   1.405       .  A
C3185      C3186   1.391       .  A
C3185      H3189   1.081       .  S
C3186      O3190   1.371       .  S
O3188      H3192   0.991       .  S
O3190      H3191   0.992       .  S
C3193      C3194   1.413       .  A
C3193      C3198   1.399       .  A
C3194      C3195   1.407       .  A
C3194      H3199   1.081       .  S
C3195      C3196   1.400       .  A
C3195      O3200   1.371       .  S
C3196      C3197   1.411       .  A
C3197      C3198   1.398       .  A
C3197      H3201   1.079       .  S
C3198      O3202   1.372       .  S
O3200      H3204   0.992       .  S
O3202      H3203   0.992       .  S
C3205      C3206   1.394       .  A
C3205      C3210   1.420       .  A
C3206      C3207   1.398       .  A
C3206      H3211   1.084       .  S
C3207      C3208   1.424       .  A
C3207      O3212   1.372       .  S
C3208      C3209   1.393       .  A
C3209      C3210   1.397       .  A
C3209      H3213   1.083       .  S
C3210      O3214   1.370       .  S
O3212      H3216   0.991       .  S
O3214      H3215   0.991       .  S
C3217      C3218   1.399       .  A
C3217      C3222   1.431       .  A
C3218      C3219   1.408       .  A
C3218      H3223   1.082       .  S
C3219      C3220   1.419       .  A
C3219      O3224   1.372       .  S
C3220      C3221   1.392       .  A
C3221      C3222   1.402       .  A
C3221      H3225   1.084       .  S
C3222      O3226   1.373       .  S
O3224      H3228   0.992       .  S
O3226      H3227   0.992       .  S
C3229      C3230   1.410       .  A
C3229      C3234   1.402       .  A
C3230      C3231   1.407       .  A
C3230      H3235   1.084       .  S
C3231      C3232   1.406       .  A
C3231      O3236   1.371       .  S
C3232      C3233   1.412       .  A
C3233      C3234   1.400       .  A
C3233      H3237   1.084   1_554  S
C3234      O3238   1.372   1_554  S
O3236      H3240   0.991       .  S
O3238      H3239   0.992       .  S
C3241      C3242   1.408       .  A
C3241      C3246   1.410       .  A
C3242      C3243   1.413       .  A
C3242      H3247   1.083       .  S
C3243      C3244   1.410       .  A
C3243      O3248   1.371       .  S
C3244      C3245   1.407       .  A
C3245      C3246   1.403       .  A
C3245      H3249   1.084   1_554  S
C3246      O3250   1.371   1_554  S
O3248      H3252   0.992       .  S
O3250      H3251   0.991       .  S
C3253      C3254   1.409       .  A
C3253      C3258   1.401       .  A
C3254      C3255   1.405       .  A
C3254      H3259   1.083       .  S
C3255      C3256   1.400       .  A
C3255      O3260   1.368       .  S
C3256      C3257   1.412       .  A
C3257      C3258   1.406       .  A
C3257      H3261   1.081       .  S
C3258      O3262   1.372       .  S
O3260      H3264   0.992       .  S
O3262      H3263   0.992       .  S
C3265      C3266   1.412       .  A
C3265      C3270   1.403       .  A
C3266      C3267   1.414       .  A
C3266      H3271   1.083       .  S
C3267      C3268   1.411       .  A
C3267      O3272   1.370       .  S
C3268      C3269   1.404       .  A
C3269      C3270   1.390       .  A
C3269      H3273   1.077       .  S
C3270      O3274   1.370       .  S
O3272      H3276   0.991       .  S
O3274      H3275   0.991       .  S
C3277      C3278   1.398       .  A
C3277      C3282   1.418       .  A
C3278      C3279   1.406       .  A
C3278      H3283   1.083       .  S
C3279      C3280   1.416       .  A
C3279      O3284   1.371       .  S
C3280      C3281   1.386       .  A
C3281      C3282   1.393       .  A
C3281      H3285   1.085       .  S
C3282      O3286   1.371       .  S
O3284      H3288   0.992       .  S
O3286      H3287   0.992       .  S
C3289      C3290   1.392       .  A
C3289      C3294   1.417       .  A
C3290      C3291   1.396       .  A
C3290      H3295   1.084       .  S
C3291      C3292   1.412       .  A
C3291      O3296   1.371       .  S
C3292      C3293   1.395       .  A
C3293      C3294   1.396       .  A
C3293      H3297   1.084       .  S
C3294      O3298   1.372       .  S
O3296      H3300   0.991       .  S
O3298      H3299   0.990       .  S
O3301     Zr3313   2.532       .  S
O3301      C3303   1.304       .  A
O3302      C3303   1.272       .  A
C3303      C3904   1.476       .  S
O3304     Zr3316   2.434       .  S
O3304      C3306   1.277       .  A
O3305     Zr3340   2.436       .  S
O3305      C3306   1.279       .  A
C3306      C3925   1.483       .  S
O3307     Zr3316   2.408       .  S
O3307      C3309   1.282       .  A
O3308      C3309   1.288       .  A
C3309      C3949   1.463       .  S
O3310     Zr3313   2.513       .  S
O3310      C3312   1.301       .  A
O3311     Zr3340   2.355       .  S
O3311      C3312   1.274       .  A
C3312      C3892   1.483       .  S
Zr3313     O3314   2.435       .  S
Zr3313     O3315   2.435       .  S
Zr3313     O3319   2.357       .  S
Zr3313     O3320   2.381       .  S
O3314      H3357   0.990       .  S
O3315      H3356   0.990       .  S
O3315      H3360   0.990       .  S
Zr3316     O3317   2.434       .  S
Zr3316     O3318   2.435       .  S
Zr3316     O3320   2.390       .  S
Zr3316     O3319   2.362       .  S
Zr3316     O3344   2.384       .  S
Zr3316     O3346   2.393       .  S
O3317      H3358   0.989       .  S
O3317      H3361   0.988       .  S
O3318      H3351   0.990       .  S
O3320     Zr3340   2.394       .  S
O3320      H3347   0.965       .  S
O3321     Zr3333   2.520       .  S
O3321      C3323   1.303       .  A
O3322      C3323   1.271       .  A
C3323      C3868   1.487       .  S
O3324     Zr3336   2.411       .  S
O3324      C3326   1.282       .  A
O3325     Zr3339   2.475       .  S
O3325      C3326   1.293       .  A
C3326      C3937   1.475       .  S
O3327     Zr3336   2.436       .  S
O3327      C3329   1.281       .  A
O3328      C3329   1.290       .  A
C3329      C3916   1.490       .  S
O3330     Zr3333   2.546       .  S
O3330      C3332   1.307       .  A
O3331     Zr3339   2.343       .  S
O3331      C3332   1.265       .  A
C3332      C3877   1.503       .  S
Zr3333     O3334   2.437       .  S
Zr3333     O3335   2.434       .  S
Zr3333     O3341   2.375       .  S
Zr3333     O3342   2.351       .  S
Zr3333     O3345   2.361       .  S
Zr3333     O3343   2.376       .  S
O3334      H3354   0.990       .  S
O3334      H3359   0.990       .  S
O3335      H3355   0.990       .  S
Zr3336     O3337   2.441       .  S
Zr3336     O3338   2.438       .  S
Zr3336     O3342   2.360       .  S
Zr3336     O3341   2.388       .  S
O3337      H3353   0.990       .  S
O3338      H3352   0.989       .  S
O3338      H3362   0.990       .  S
Zr3339     O3342   2.348       .  S
Zr3339     O3345   2.406       .  S
Zr3340     O3346   2.376       .  S
O3341      H3349   0.963       .  S
O3344      H3348   0.965       .  S
O3345      H3350   0.966       .  S
O3363     Zr3375   2.401       .  S
O3363      C3365   1.278       .  A
O3364      C3365   1.293       .  A
C3365      C3853   1.475       .  S
O3366     Zr3378   2.559       .  S
O3366      C3368   1.311       .  A
O3367      C3368   1.273       .  A
C3368      C3769   1.474       .  S
O3369     Zr3378   2.528       .  S
O3369      C3371   1.305       .  A
O3370     Zr3401   2.376   1_554  S
C3371      C3781   1.496       .  S
O3372     Zr3375   2.434       .  S
O3372      C3374   1.278       .  A
O3373      C3374   1.291       .  A
C3374      C3832   1.498       .  S
Zr3375     O3376   2.442       .  S
Zr3375     O3377   2.432       .  S
Zr3375     O3382   2.370       .  S
Zr3375     O3381   2.275       .  S
O3376      H3419   0.990       .  S
O3377      H3418   0.987       .  S
O3377      H3422   0.990       .  S
Zr3378     O3379   2.437       .  S
Zr3378     O3380   2.434       .  S
Zr3378     O3382   2.350       .  S
Zr3378     O3381   2.282       .  S
O3379      H3420   0.990       .  S
O3379      H3423   0.990       .  S
O3380      H3413   0.990       .  S
O3382      H3409   0.962       .  S
O3383     Zr3395   2.445       .  S
O3383      C3385   1.282       .  A
O3384     Zr3402   2.450   1_556  S
O3384      C3385   1.285       .  A
C3385      C3817   1.490       .  S
O3386     Zr3398   2.539       .  S
O3386      C3388   1.308       .  A
O3387     Zr3401   2.363       .  S
O3387      C3388   1.276       .  A
C3388      C3808   1.503       .  S
O3389     Zr3398   2.526       .  S
O3389      C3391   1.293       .  A
O3390     Zr3402   2.382   1_556  S
O3390      C3391   1.263       .  A
C3391      C3796   1.510       .  S
O3392     Zr3395   2.411       .  S
O3392      C3394   1.274       .  A
O3393     Zr3401   2.460       .  S
O3393      C3394   1.285       .  A
C3394      C3844   1.496       .  S
Zr3395     O3396   2.441       .  S
Zr3395     O3397   2.438       .  S
Zr3395     O3403   2.360       .  S
Zr3395     O3404   2.382       .  S
Zr3395     O3407   2.421       .  S
Zr3395     O3405   2.392       .  S
O3396      H3416   0.989       .  S
O3396      H3421   0.989       .  S
O3397      H3417   0.990       .  S
Zr3398     O3399   2.435       .  S
Zr3398     O3400   2.434       .  S
Zr3398     O3404   2.378       .  S
Zr3398     O3403   2.383       .  S
Zr3398     O3408   2.395   1_556  S
Zr3398     O3406   2.379       .  S
O3399      H3415   0.990       .  S
O3400      H3414   0.990       .  S
O3400      H3424   0.990       .  S
Zr3401     O3404   2.391       .  S
Zr3401     O3406   2.408       .  S
Zr3401     O3407   2.393       .  S
Zr3402     O3403   2.409   1_554  S
Zr3402     O3405   2.383   1_554  S
Zr3402     O3408   2.409       .  S
O3403      H3411   0.961       .  S
O3406      H3410   0.965       .  S
O3407      H3412   0.967       .  S
O3425     Zr3437   2.530       .  S
O3425      C3427   1.305       .  A
O3426     Zr4783   2.343   1_545  S
O3426      C3427   1.273       .  A
C3427      C3757   1.474       .  S
O3428     Zr3440   2.409       .  S
O3428      C3430   1.279       .  A
O3429     Zr3464   2.490   1_545  S
O3429      C3430   1.296       .  A
C3430      C3784   1.489       .  S
O3431     Zr3440   2.391       .  S
O3431      C3433   1.269       .  A
O3432     Zr4783   2.472   1_545  S
O3432      C3433   1.288       .  A
C3433      C3901   1.493       .  S
O3434     Zr3437   2.535       .  S
O3434      C3436   1.306       .  A
O3435     Zr3464   2.339   1_545  S
O3435      C3436   1.271       .  A
C3436      C3748   1.473       .  S
Zr3437     O3438   2.436       .  S
Zr3437     O3439   2.438       .  S
Zr3437     O3444   2.353       .  S
Zr3437     O3467   2.369       .  S
Zr3437     O4789   2.359   1_545  S
Zr3437     O3443   2.290       .  S
O3438      H3481   0.990       .  S
O3439      H3480   0.990       .  S
O3439      H3484   0.990       .  S
Zr3440     O3441   2.439       .  S
Zr3440     O3442   2.433       .  S
Zr3440     O3444   2.375       .  S
Zr3440     O3468   2.388   1_545  S
Zr3440     O3470   2.353   1_545  S
Zr3440     O3443   2.290       .  S
O3441      H3482   0.990       .  S
O3441      H3485   0.991       .  S
O3442      H3475   0.990       .  S
O3443     Zr4783   2.259   1_545  S
O3444     Zr3464   2.381   1_545  S
O3444      H3471   0.960       .  S
O3445     Zr3457   2.550       .  S
O3445      C3447   1.311       .  A
O3446     Zr4784   2.339       .  S
O3446      C3447   1.271       .  A
C3447      C3721   1.496       .  S
O3448     Zr3460   2.379       .  S
O3448      C3450   1.273       .  A
O3449     Zr3463   2.457       .  S
O3449      C3450   1.291       .  A
C3450      C3889   1.464       .  S
O3451     Zr3460   2.400       .  S
O3451      C3453   1.270       .  A
O3452     Zr4784   2.478       .  S
O3452      C3453   1.286       .  A
C3453      C3772   1.505       .  S
O3454     Zr3457   2.544       .  S
O3454      C3456   1.310       .  A
O3455     Zr3463   2.387       .  S
O3455      C3456   1.279       .  A
C3456      C3733   1.508       .  S
Zr3457     O3458   2.435       .  S
Zr3457     O3459   2.435       .  S
Zr3457     O3465   2.371       .  S
Zr3457     O3466   2.383       .  S
Zr3457     O3469   2.373       .  S
Zr3457     O4787   2.378       .  S
O3458      H3478   0.990       .  S
O3458      H3483   0.990       .  S
O3459      H3479   0.990       .  S
Zr3460     O3461   2.437       .  S
Zr3460     O3462   2.426       .  S
Zr3460     O3466   2.362       .  S
Zr3460     O3465   2.367       .  S
Zr3460     O4790   2.400       .  S
Zr3460     O4788   2.388       .  S
O3461      H3477   0.990       .  S
O3462      H3476   0.989       .  S
O3462      H3486   0.990       .  S
Zr3463     O4746   2.337       .  S
Zr3463     O4752   2.469       .  S
Zr3463     O3466   2.365       .  S
Zr3463     O4788   2.374       .  S
Zr3463     O3469   2.408       .  S
Zr3463     O4763   2.255       .  S
Zr3464     O4766   2.329       .  S
Zr3464     O4772   2.479       .  S
Zr3464     O4785   2.402       .  S
Zr3464     O3467   2.416   1_565  S
Zr3464     O3470   2.377       .  S
O3465     Zr4784   2.401       .  S
O3465      H3473   0.965       .  S
O3467     Zr4777   2.380   1_545  S
O3468     Zr4780   2.390       .  S
O3468     Zr4783   2.372       .  S
O3468      H3472   0.964       .  S
O3469     Zr4757   2.356       .  S
O3469      H3474   0.965       .  S
O3470     Zr4780   2.400       .  S
O3487     Zr3499   2.394       .  S
O3487      C3489   1.270       .  A
O3488     Zr4845   2.506   1_545  S
O3488      C3489   1.296       .  A
C3489      C3880   1.481       .  S
O3490     Zr3502   2.515       .  S
O3490      C3492   1.303       .  A
O3491     Zr4846   2.348   1_545  S
O3491      C3492   1.273       .  A
C3492      C3700   1.482       .  S
O3493     Zr3502   2.554       .  S
O3493      C3495   1.312       .  A
O3494     Zr4845   2.345   1_545  S
O3494      C3495   1.272       .  A
C3495      C3709   1.498       .  S
O3496     Zr3499   2.389       .  S
O3496      C3498   1.276       .  A
O3497     Zr4846   2.507   1_545  S
O3497      C3498   1.301       .  A
C3498      C3805   1.502       .  S
Zr3499     O3500   2.437       .  S
Zr3499     O3501   2.431       .  S
Zr3499     O3505   2.348       .  S
Zr3499     O3506   2.380       .  S
Zr3499     O4849   2.380   1_545  S
Zr3499     O4851   2.388   1_545  S
O3500      H3543   0.990       .  S
O3501      H3542   0.990       .  S
O3501      H3546   0.988       .  S
Zr3502     O3503   2.435       .  S
Zr3502     O3504   2.437       .  S
Zr3502     O3506   2.399       .  S
Zr3502     O3505   2.341       .  S
Zr3502     O4850   2.368   1_545  S
Zr3502     O4852   2.370   1_545  S
O3503      H3544   0.990       .  S
O3503      H3547   0.990       .  S
O3504      H3537   0.990       .  S
O3505     Zr4845   2.347   1_545  S
O3506     Zr4846   2.377   1_545  S
O3506      H3533   0.964       .  S
O3507     Zr3519   2.418       .  S
O3507      C3509   1.275       .  A
O3508     Zr3526   2.487       .  S
O3508      C3509   1.291       .  A
C3509      C3793   1.497       .  S
O3510     Zr3522   2.542       .  S
O3510      C3512   1.308       .  A
O3511     Zr3525   2.341       .  S
O3511      C3512   1.273       .  A
C3512      C3685   1.483       .  S
O3513     Zr3522   2.542       .  S
O3513      C3515   1.309       .  A
O3514     Zr3526   2.361       .  S
O3514      C3515   1.276       .  A
C3515      C3673   1.483       .  S
O3516     Zr3519   2.389       .  S
O3516      C3518   1.276       .  A
O3517     Zr3525   2.480       .  S
O3517      C3518   1.297       .  A
C3518      C3865   1.485       .  S
Zr3519     O3520   2.445       .  S
Zr3519     O3521   2.425       .  S
Zr3519     O3527   2.369       .  S
Zr3519     O3528   2.358       .  S
Zr3519     O3531   2.381       .  S
Zr3519     O3529   2.395       .  S
O3520      H3540   0.990       .  S
O3520      H3545   0.987       .  S
O3521      H3541   0.987       .  S
Zr3522     O3523   2.434       .  S
Zr3522     O3524   2.436       .  S
Zr3522     O3528   2.362       .  S
Zr3522     O3527   2.373       .  S
Zr3522     O3532   2.365       .  S
Zr3522     O3530   2.370       .  S
O3523      H3539   0.990       .  S
O3524      H3538   0.990       .  S
O3524      H3548   0.990       .  S
Zr3525     O4808   2.504       .  S
Zr3525     O4814   2.339       .  S
Zr3525     O4825   2.354       .  S
Zr3525     O3528   2.351       .  S
Zr3525     O3530   2.414       .  S
Zr3525     O3531   2.362       .  S
Zr3526     O4811   2.358       .  S
Zr3526     O4817   2.506       .  S
Zr3526     O4826   2.379       .  S
Zr3526     O3527   2.387       .  S
Zr3526     O3529   2.369       .  S
Zr3526     O3532   2.415       .  S
O3527      H3535   0.960       .  S
O3529     Zr4819   2.384       .  S
O3530     Zr4822   2.362       .  S
O3530      H3534   0.965       .  S
O3531     Zr4819   2.389       .  S
O3531      H3536   0.965       .  S
O3532     Zr4822   2.370       .  S
O3549      C3551   1.303       .  A
O3550     Zr3587   2.339       .  S
O3550      C3551   1.270       .  A
C3551      C3760   1.478       .  S
O3552     Zr3564   2.427       .  S
O3552      C3554   1.274       .  A
O3553     Zr3588   2.474       .  S
O3553      C3554   1.287       .  A
C3554      C3856   1.492       .  S
O3555      C3557   1.280       .  A
O3556     Zr3587   2.429       .  S
O3556      C3557   1.283       .  A
C3557      C3952   1.460       .  S
O3558     Zr3561   2.525       .  S
O3558      C3560   1.304       .  A
O3559     Zr3588   2.357       .  S
O3559      C3560   1.274       .  A
C3560      C3745   1.476       .  S
Zr3561     O3562   2.435       .  S
Zr3561     O3563   2.434       .  S
Zr3561     O3568   2.374       .  S
Zr3561     O3591   2.368       .  S
O3563      H3608   0.990       .  S
Zr3564     O3565   2.454       .  S
Zr3564     O3566   2.438   1_655  S
Zr3564     O3568   2.405       .  S
Zr3564     O3594   2.369       .  S
O3565      H3606   0.990       .  S
O3565      H3609   0.989       .  S
O3566      H3599   0.990       .  S
O3567     Zr3587   2.242       .  S
O3568     Zr3588   2.385       .  S
O3568      H3595   0.965       .  S
O3569     Zr3581   2.507       .  S
O3569      C3571   1.301       .  A
O3570     Zr3588   2.353       .  S
O3570      C3571   1.274       .  A
C3571      C3697   1.492       .  S
O3572      C3574   1.281       .  A
O3573     Zr3587   2.442       .  S
O3573      C3574   1.286       .  A
C3574      C3940   1.460       .  S
O3575     Zr3584   2.414       .  S
O3575      C3577   1.272       .  A
O3576     Zr3588   2.447       .  S
O3576      C3577   1.280       .  A
C3577      C3841   1.487       .  S
O3578      C3580   1.312       .  A
O3579     Zr3587   2.320       .  S
O3579      C3580   1.267       .  A
C3580      C3712   1.496       .  S
Zr3581     O3582   2.435       .  S
Zr3581     O3583   2.436       .  S
Zr3581     O3589   2.399       .  S
Zr3581     O3591   2.375       .  S
O3582      H3602   0.990       .  S
O3582      H3607   0.990       .  S
O3583      H3603   0.990       .  S
Zr3584     O3585   2.435       .  S
Zr3584     O3586   2.434   1_655  S
Zr3584     O3589   2.391       .  S
Zr3584     O3594   2.380       .  S
O3585      H3601   0.990       .  S
O3586      H3600   0.990   1_455  S
O3586      H3610   0.990       .  S
Zr3587     O3590   2.340       .  S
Zr3587     O3592   2.368       .  S
Zr3587     O3593   2.399       .  S
Zr3588     O3589   2.414       .  S
Zr3588     O3591   2.407       .  S
Zr3588     O3594   2.385       .  S
O3589      H3597   0.966       .  S
O3592      H3596   0.966       .  S
O3593      H3598   0.966       .  S
O3611      C3613   1.272       .  A
O3612     Zr3649   2.460       .  S
O3612      C3613   1.285       .  A
C3613      C3928   1.492       .  S
O3614     Zr3626   2.540       .  S
O3614      C3616   1.308       .  A
O3615     Zr3650   2.344       .  S
O3615      C3616   1.272       .  A
C3616      C3724   1.492       .  S
O3617      C3619   1.313       .  A
O3618     Zr3649   2.367       .  S
O3618      C3619   1.276       .  A
C3619      C3736   1.521       .  S
O3620     Zr3623   2.411       .  S
O3620      C3622   1.272       .  A
O3621     Zr3650   2.449       .  S
O3621      C3622   1.276       .  A
C3622      C3829   1.493       .  S
Zr3623     O3624   2.436       .  S
Zr3623     O3625   2.442       .  S
Zr3623     O3630   2.372       .  S
Zr3623     O3653   2.406       .  S
O3625      H3666   0.990       .  S
O3625      H3670   0.989       .  S
Zr3626     O3627   2.435       .  S
Zr3626     O3628   2.435       .  S
Zr3626     O3630   2.381       .  S
Zr3626     O3656   2.383       .  S
O3627      H3668   0.990       .  S
O3627      H3671   0.990       .  S
O3629     Zr3649   2.278       .  S
O3630     Zr3650   2.403       .  S
O3630      H3657   0.962       .  S
O3631     Zr3643   2.437       .  S
O3631      C3633   1.287       .  A
O3632     Zr3650   2.496       .  S
O3632      C3633   1.297       .  A
C3633      C3820   1.495       .  S
O3634      C3636   1.305       .  A
O3635     Zr3649   2.368       .  S
O3635      C3636   1.277       .  A
C3636      C3688   1.488       .  S
O3637     Zr3646   2.549       .  S
O3637      C3639   1.308       .  A
O3638     Zr3650   2.317       .  S
O3638      C3639   1.267       .  A
C3639      C3676   1.475       .  S
O3640      C3642   1.269       .  A
O3641     Zr3649   2.468       .  S
O3641      C3642   1.283       .  A
C3642      C3913   1.483       .  S
Zr3643     O3644   2.445       .  S
Zr3643     O3645   2.434       .  S
Zr3643     O3651   2.383       .  S
Zr3643     O3653   2.351       .  S
O3644      H3664   0.990       .  S
O3644      H3669   0.988       .  S
O3645      H3665   0.990       .  S
Zr3646     O3647   2.434       .  S
Zr3646     O3648   2.437       .  S
Zr3646     O3651   2.339       .  S
Zr3646     O3656   2.366       .  S
O3647      H3663   0.990       .  S
O3648      H3662   0.990   1_655  S
O3648      H3672   0.990       .  S
Zr3649     O3652   2.370       .  S
Zr3649     O3654   2.406       .  S
Zr3649     O3655   2.400       .  S
Zr3650     O3651   2.377       .  S
Zr3650     O3653   2.383       .  S
Zr3650     O3656   2.410       .  S
O3651      H3659   0.960       .  S
O3654      H3658   0.965       .  S
O3655      H3660   0.966       .  S
C3673      C3674   1.402       .  A
C3673      C3678   1.412       .  A
C3674      C3675   1.408       .  A
C3674      H3679   1.084       .  S
C3675      C3676   1.416       .  A
C3675      O3680   1.373       .  S
C3676      C3677   1.402       .  A
C3677      C3678   1.406       .  A
C3677      H3681   1.084       .  S
C3678      O3682   1.367       .  S
O3680      H3684   0.991       .  S
O3682      H3683   0.992       .  S
C3685      C3686   1.411       .  A
C3685      C3690   1.404       .  A
C3686      C3687   1.402       .  A
C3686      H3691   1.077       .  S
C3687      C3688   1.402       .  A
C3687      O3692   1.371       .  S
C3688      C3689   1.415       .  A
C3689      C3690   1.408       .  A
C3689      H3693   1.083       .  S
C3690      O3694   1.371       .  S
O3692      H3696   0.992       .  S
O3694      H3695   0.992       .  S
C3697      C3698   1.421       .  A
C3697      C3702   1.403       .  A
C3698      C3699   1.398       .  A
C3698      H3703   1.083       .  S
C3699      C3700   1.397       .  A
C3699      O3704   1.371       .  S
C3700      C3701   1.416       .  A
C3701      C3702   1.399       .  A
C3701      H3705   1.082       .  S
C3702      O3706   1.372       .  S
O3704      H3708   0.991       .  S
O3706      H3707   0.992       .  S
C3709      C3710   1.424       .  A
C3709      C3714   1.399       .  A
C3710      C3711   1.411       .  A
C3710      H3715   1.084   1_545  S
C3711      C3712   1.400       .  A
C3711      O3716   1.371       .  S
C3712      C3713   1.421       .  A
C3713      C3714   1.402       .  A
C3713      H3717   1.083       .  S
C3714      O3718   1.371       .  S
O3716      H3720   0.992   1_545  S
O3718      H3719   0.992       .  S
C3721      C3722   1.424       .  A
C3721      C3726   1.400       .  A
C3722      C3723   1.408       .  A
C3722      H3727   1.083       .  S
C3723      C3724   1.399       .  A
C3723      O3728   1.372       .  S
C3724      C3725   1.419       .  A
C3725      C3726   1.401       .  A
C3725      H3729   1.083       .  S
C3726      O3730   1.372       .  S
O3728      H3732   0.992       .  S
O3730      H3731   0.992       .  S
C3733      C3734   1.421       .  A
C3733      C3738   1.401       .  A
C3734      C3735   1.417       .  A
C3734      H3739   1.084       .  S
C3735      C3736   1.409       .  A
C3735      O3740   1.371       .  S
C3736      C3737   1.425       .  A
C3737      C3738   1.408       .  A
C3737      H3741   1.083       .  S
C3738      O3742   1.371       .  S
O3740      H3744   0.992       .  S
O3742      H3743   0.992       .  S
C3745      C3746   1.406       .  A
C3745      C3750   1.407       .  A
C3746      C3747   1.407       .  A
C3746      H3751   1.084       .  S
C3747      C3748   1.410       .  A
C3747      O3752   1.373       .  S
C3748      C3749   1.407       .  A
C3749      C3750   1.405       .  A
C3749      H3753   1.084       .  S
C3750      O3754   1.371       .  S
O3752      H3756   0.990       .  S
O3754      H3755   0.991       .  S
C3757      C3758   1.397       .  A
C3757      C3762   1.415       .  A
C3758      C3759   1.401       .  A
C3758      H3763   1.084       .  S
C3759      C3760   1.419       .  A
C3759      O3764   1.373       .  S
C3760      C3761   1.397       .  A
C3761      C3762   1.403       .  A
C3761      H3765   1.080       .  S
C3762      O3766   1.371       .  S
O3764      H3768   0.992       .  S
O3766      H3767   0.992       .  S
C3769      C3770   1.411       .  A
C3769      C3774   1.403       .  A
C3770      C3771   1.414       .  A
C3770      H3775   1.081       .  S
C3771      C3772   1.411       .  A
C3771      O3776   1.369       .  S
C3772      C3773   1.408       .  A
C3773      C3774   1.398       .  A
C3773      H3777   1.074       .  S
C3774      O3778   1.372       .  S
O3776      H3780   0.989       .  S
O3778      H3779   0.991       .  S
C3781      C3782   1.420       .  A
C3781      C3786   1.402       .  A
C3782      C3783   1.408       .  A
C3782      H3787   1.083       .  S
C3783      C3784   1.399       .  A
C3783      O3788   1.370       .  S
C3784      C3785   1.416       .  A
C3785      C3786   1.403       .  A
C3785      H3789   1.084       .  S
C3786      O3790   1.371       .  S
O3788      H3792   0.992       .  S
O3790      H3791   0.992       .  S
C3793      C3794   1.414       .  A
C3793      C3798   1.402       .  A
C3794      C3795   1.416       .  A
C3794      H3799   1.080       .  S
C3795      C3796   1.409       .  A
C3795      O3800   1.371       .  S
C3796      C3797   1.417       .  A
C3797      C3798   1.403       .  A
C3797      H3801   1.080       .  S
C3798      O3802   1.371       .  S
O3800      H3804   0.992       .  S
O3802      H3803   0.991       .  S
C3805      C3806   1.420       .  A
C3805      C3810   1.402       .  A
C3806      C3807   1.405       .  A
C3806      H3811   1.083       .  S
C3807      C3808   1.402       .  A
C3807      O3812   1.372       .  S
C3808      C3809   1.422       .  A
C3809      C3810   1.409       .  A
C3809      H3813   1.083       .  S
C3810      O3814   1.371       .  S
O3812      H3816   0.992       .  S
O3814      H3815   0.992       .  S
C3817      C3818   1.416       .  A
C3817      C3822   1.400       .  A
C3818      C3819   1.418       .  A
C3818      H3823   1.081       .  S
C3819      C3820   1.407       .  A
C3819      O3824   1.371       .  S
C3820      C3821   1.412       .  A
C3821      C3822   1.397       .  A
C3821      H3825   1.082       .  S
C3822      O3826   1.372       .  S
O3824      H3828   0.992       .  S
O3826      H3827   0.991       .  S
C3829      C3830   1.415       .  A
C3829      C3834   1.404       .  A
C3830      C3831   1.417       .  A
C3830      H3835   1.082       .  S
C3831      C3832   1.409       .  A
C3831      O3836   1.371       .  S
C3832      C3833   1.409       .  A
C3833      C3834   1.395       .  A
C3833      H3837   1.081       .  S
C3834      O3838   1.372       .  S
O3836      H3840   0.992       .  S
O3838      H3839   0.992       .  S
C3841      C3842   1.408       .  A
C3841      C3846   1.407       .  A
C3842      C3843   1.413       .  A
C3842      H3847   1.083       .  S
C3843      C3844   1.413       .  A
C3843      O3848   1.370       .  S
C3844      C3845   1.407       .  A
C3845      C3846   1.393       .  A
C3845      H3849   1.082       .  S
C3846      O3850   1.371       .  S
O3848      H3852   0.991       .  S
O3850      H3851   0.992       .  S
C3853      C3854   1.411       .  A
C3853      C3858   1.403       .  A
C3854      C3855   1.406       .  A
C3854      H3859   1.079       .  S
C3855      C3856   1.403       .  A
C3855      O3860   1.371       .  S
C3856      C3857   1.411       .  A
C3857      C3858   1.402       .  A
C3857      H3861   1.080       .  S
C3858      O3862   1.372       .  S
O3860      H3864   0.992       .  S
O3862      H3863   0.992       .  S
C3865      C3866   1.393       .  A
C3865      C3870   1.423       .  A
C3866      C3867   1.397       .  A
C3866      H3871   1.084       .  S
C3867      C3868   1.424       .  A
C3867      O3872   1.370       .  S
C3868      C3869   1.395       .  A
C3869      C3870   1.402       .  A
C3869      H3873   1.083       .  S
C3870      O3874   1.371       .  S
O3872      H3876   0.990       .  S
O3874      H3875   0.992       .  S
C3877      C3878   1.398       .  A
C3877      C3882   1.433       .  A
C3878      C3879   1.406       .  A
C3878      H3883   1.083       .  S
C3879      C3880   1.421       .  A
C3879      O3884   1.372       .  S
C3880      C3881   1.391       .  A
C3881      C3882   1.401       .  A
C3881      H3885   1.084       .  S
C3882      O3886   1.372       .  S
O3884      H3888   0.992       .  S
O3886      H3887   0.992       .  S
C3889      C3890   1.410       .  A
C3889      C3894   1.402       .  A
C3890      C3891   1.406       .  A
C3890      H3895   1.084       .  S
C3891      C3892   1.405       .  A
C3891      O3896   1.371       .  S
C3892      C3893   1.413       .  A
C3893      C3894   1.397       .  A
C3893      H3897   1.084       .  S
C3894      O3898   1.372       .  S
O3896      H3900   0.991       .  S
O3898      H3899   0.992       .  S
C3901      C3902   1.406       .  A
C3901      C3906   1.411       .  A
C3902      C3903   1.410       .  A
C3902      H3907   1.081       .  S
C3903      C3904   1.409       .  A
C3903      O3908   1.370       .  S
C3904      C3905   1.405       .  A
C3905      C3906   1.402       .  A
C3905      H3909   1.084       .  S
C3906      O3910   1.371       .  S
O3908      H3912   0.992       .  S
O3910      H3911   0.991       .  S
C3913      C3914   1.414       .  A
C3913      C3918   1.401       .  A
C3914      C3915   1.418       .  A
C3914      H3919   1.082       .  S
C3915      C3916   1.407       .  A
C3915      O3920   1.375       .  S
C3916      C3917   1.409       .  A
C3917      C3918   1.396       .  A
C3917      H3921   1.082       .  S
C3918      O3922   1.372       .  S
O3920      H3924   0.991       .  S
O3922      H3923   0.992       .  S
C3925      C3926   1.412       .  A
C3925      C3930   1.401       .  A
C3926      C3927   1.414       .  A
C3926      H3931   1.083       .  S
C3927      C3928   1.411       .  A
C3927      O3932   1.371       .  S
C3928      C3929   1.406       .  A
C3929      C3930   1.391       .  A
C3929      H3933   1.078       .  S
C3930      O3934   1.371       .  S
O3932      H3936   0.992       .  S
O3934      H3935   0.992       .  S
C3937      C3938   1.395       .  A
C3937      C3942   1.420       .  A
C3938      C3939   1.403       .  A
C3938      H3943   1.083       .  S
C3939      C3940   1.416       .  A
C3939      O3944   1.370       .  S
C3940      C3941   1.384       .  A
C3941      C3942   1.393       .  A
C3941      H3945   1.085       .  S
C3942      O3946   1.369       .  S
O3944      H3948   0.991       .  S
O3946      H3947   0.992       .  S
C3949      C3950   1.392       .  A
C3949      C3954   1.415       .  A
C3950      C3951   1.395       .  A
C3950      H3955   1.084       .  S
C3951      C3952   1.412       .  A
C3951      O3956   1.372       .  S
C3952      C3953   1.394       .  A
C3953      C3954   1.400       .  A
C3953      H3957   1.084       .  S
C3954      O3958   1.375       .  S
O3956      H3960   0.992       .  S
O3958      H3959   0.991       .  S
O3961     Zr3973   2.523       .  S
O3961      C3963   1.302       .  A
O3962     Zr4659   2.359   1_554  S
O3962      C3963   1.273       .  A
C3963      C4564   1.477       .  S
O3964     Zr3976   2.435       .  S
O3964      C3966   1.278       .  A
O3965     Zr4000   2.433   1_554  S
O3965      C3966   1.279       .  A
C3966      C4585   1.483       .  S
O3967     Zr3976   2.402       .  S
O3967      C3969   1.281       .  A
O3968     Zr4659   2.425   1_554  S
O3968      C3969   1.284       .  A
C3969      C4609   1.461       .  S
O3970     Zr3973   2.521       .  S
O3970      C3972   1.303       .  A
O3971     Zr4000   2.353   1_554  S
O3971      C3972   1.274       .  A
C3972      C4552   1.493       .  S
Zr3973     O3974   2.435       .  S
Zr3973     O3975   2.435       .  S
Zr3973     O3980   2.372       .  S
Zr3973     O4663   2.372   1_554  S
Zr3973     O4665   2.378   1_554  S
Zr3973     O3979   2.276       .  S
O3974      H4017   0.991       .  S
O3975      H4016   0.990       .  S
O3975      H4020   0.990       .  S
Zr3976     O3977   2.436       .  S
Zr3976     O3978   2.437       .  S
Zr3976     O3980   2.378       .  S
Zr3976     O4004   2.380   1_554  S
Zr3976     O4006   2.388   1_554  S
Zr3976     O3979   2.266       .  S
O3977      H4018   0.989       .  S
O3977      H4021   0.989       .  S
O3978      H4011   0.990       .  S
O3979     Zr4659   2.244   1_554  S
O3980     Zr4000   2.402   1_554  S
O3980      H4007   0.966       .  S
O3981     Zr3993   2.527       .  S
O3981      C3983   1.304       .  A
O3982     Zr4660   2.333       .  S
O3982      C3983   1.271       .  A
C3983      C4528   1.485       .  S
O3984     Zr3996   2.397       .  S
O3984      C3986   1.279       .  A
O3985     Zr3999   2.473       .  S
O3985      C3986   1.292       .  A
C3986      C4597   1.480       .  S
O3987     Zr3996   2.419       .  S
O3987      C3989   1.281       .  A
O3988     Zr4660   2.476       .  S
O3988      C3989   1.294       .  A
C3989      C4576   1.487       .  S
O3990     Zr3993   2.542       .  S
O3990      C3992   1.305       .  A
O3991     Zr3999   2.344       .  S
O3991      C3992   1.263       .  A
C3992      C4537   1.503       .  S
Zr3993     O3994   2.435       .  S
Zr3993     O3995   2.437       .  S
Zr3993     O4001   2.363       .  S
Zr3993     O4005   2.354       .  S
Zr3993     O4003   2.377       .  S
Zr3993     O4002   2.281       .  S
O3994      H4014   0.990       .  S
O3994      H4019   0.990       .  S
O3995      H4015   0.990       .  S
Zr3996     O3997   2.441       .  S
Zr3996     O3998   2.436       .  S
Zr3996     O4001   2.380       .  S
Zr3996     O4666   2.368       .  S
Zr3996     O4664   2.377       .  S
Zr3996     O4002   2.275       .  S
O3997      H4013   0.991       .  S
O3998      H4012   0.988       .  S
O3998      H4022   0.990       .  S
Zr3999     O4622   2.346       .  S
Zr3999     O4628   2.436       .  S
Zr3999     O4639   2.352       .  S
Zr3999     O4664   2.370       .  S
Zr3999     O4005   2.407       .  S
Zr3999     O4002   2.242       .  S
Zr4000     O4642   2.352       .  S
Zr4000     O4648   2.464       .  S
Zr4000     O4661   2.374       .  S
Zr4000     O4663   2.402       .  S
Zr4000     O4006   2.386       .  S
O4001     Zr4660   2.380       .  S
O4001      H4009   0.964       .  S
O4003     Zr4633   2.375       .  S
O4003     Zr4660   2.408       .  S
O4004     Zr4656   2.387       .  S
O4004     Zr4659   2.372       .  S
O4004      H4008   0.967       .  S
O4005     Zr4633   2.377       .  S
O4005      H4010   0.966       .  S
O4006     Zr4656   2.376       .  S
O4023     Zr4035   2.404       .  S
O4023      C4025   1.279       .  A
O4024     Zr4721   2.478   1_554  S
O4024      C4025   1.295       .  A
C4025      C4513   1.473       .  S
O4026     Zr4038   2.541       .  S
O4026      C4028   1.308       .  A
O4027     Zr4722   2.330       .  S
O4027      C4028   1.273       .  A
C4028      C4429   1.470       .  S
O4029     Zr4038   2.522       .  S
O4029      C4031   1.305       .  A
O4030     Zr4061   2.375       .  S
O4030      C4691   1.278       .  A
C4031      O4690   1.277       .  A
C4031      C4441   1.492       .  S
O4032     Zr4035   2.435       .  S
O4032      C4034   1.278       .  A
O4033     Zr4722   2.483       .  S
O4033      C4034   1.290       .  A
C4034      C4492   1.499       .  S
Zr4035     O4036   2.442       .  S
Zr4035     O4037   2.431       .  S
Zr4035     O4041   2.368       .  S
Zr4035     O4042   2.375       .  S
Zr4035     O4725   2.363   1_554  S
Zr4035     O4727   2.374   1_554  S
O4036      H4079   0.990       .  S
O4037      H4078   0.986       .  S
O4037      H4082   0.990       .  S
Zr4038     O4039   2.436       .  S
Zr4038     O4040   2.435       .  S
Zr4038     O4042   2.358       .  S
Zr4038     O4041   2.362       .  S
Zr4038     O4726   2.379   1_554  S
Zr4038     O4728   2.367       .  S
O4039      H4080   0.990       .  S
O4039      H4083   0.990       .  S
O4040      H4073   0.990       .  S
O4041     Zr4721   2.352   1_554  S
O4042     Zr4722   2.369       .  S
O4042      H4069   0.956       .  S
O4043     Zr4055   2.440       .  S
O4043      C4045   1.280       .  A
O4044     Zr4062   2.444       .  S
O4044      C4045   1.281       .  A
C4045      C4477   1.490       .  S
O4046     Zr4058   2.543       .  S
O4046      C4048   1.309       .  A
O4047     Zr4061   2.362       .  S
O4047      C4048   1.276       .  A
C4048      C4468   1.506       .  S
O4049     Zr4058   2.517       .  S
O4049      C4051   1.292       .  A
O4050     Zr4062   2.387       .  S
O4050      C4051   1.264       .  A
C4051      C4456   1.507       .  S
O4052     Zr4055   2.410       .  S
O4052      C4054   1.274       .  A
O4053     Zr4061   2.465       .  S
O4053      C4054   1.287       .  A
C4054      C4504   1.495       .  S
Zr4055     O4056   2.439       .  S
Zr4055     O4057   2.437       .  S
Zr4055     O4063   2.364       .  S
Zr4055     O4064   2.383       .  S
Zr4055     O4067   2.416       .  S
Zr4055     O4065   2.389       .  S
O4056      H4076   0.989       .  S
O4056      H4081   0.988       .  S
O4057      H4077   0.990       .  S
Zr4058     O4059   2.435       .  S
Zr4058     O4060   2.434       .  S
Zr4058     O4064   2.374       .  S
Zr4058     O4063   2.392       .  S
Zr4058     O4068   2.400       .  S
Zr4058     O4066   2.372       .  S
O4059      H4075   0.990       .  S
O4060      H4074   0.990       .  S
O4060      H4084   0.990       .  S
Zr4061     O4684   2.468       .  S
Zr4061     O4701   2.354       .  S
Zr4061     O4064   2.384       .  S
Zr4061     O4066   2.402       .  S
Zr4061     O4067   2.385       .  S
Zr4062     O4687   2.331       .  S
Zr4062     O4693   2.482       .  S
Zr4062     O4702   2.373       .  S
Zr4062     O4063   2.416       .  S
Zr4062     O4065   2.387       .  S
Zr4062     O4068   2.405       .  S
O4063      H4071   0.962       .  S
O4065     Zr4695   2.365       .  S
O4066     Zr4698   2.379       .  S
O4066      H4070   0.965       .  S
O4067     Zr4695   2.369       .  S
O4067      H4072   0.966       .  S
O4068     Zr4698   2.360       .  S
O4085     Zr4097   2.541       .  S
O4085      C4087   1.308       .  A
O4086      C4087   1.275       .  A
C4087      C4417   1.483       .  S
O4088     Zr4100   2.406       .  S
O4088      C4090   1.279       .  A
O4089     Zr4124   2.495       .  S
O4089      C4090   1.298       .  A
C4090      C4444   1.491       .  S
O4091     Zr4100   2.396       .  S
O4091      C4093   1.270       .  A
O4092      C4093   1.286       .  A
C4093      C4561   1.490       .  S
O4094     Zr4097   2.527       .  S
O4094      C4096   1.305       .  A
O4095     Zr4124   2.343       .  S
O4095      C4096   1.272       .  A
C4096      C4408   1.471       .  S
Zr4097     O4098   2.434       .  S
Zr4097     O4099   2.436       .  S
Zr4097     O4104   2.358       .  S
Zr4097     O4127   2.374       .  S
Zr4097     O4103   2.287       .  S
O4098      H4141   0.989       .  S
O4099      H4140   0.990       .  S
O4099      H4144   0.990       .  S
Zr4100     O4101   2.443       .  S
Zr4100     O4102   2.433       .  S
Zr4100     O4104   2.379       .  S
Zr4100     O4128   2.390       .  S
Zr4100     O4130   2.359       .  S
Zr4100     O4103   2.287       .  S
O4101      H4142   0.990       .  S
O4101      H4145   0.991       .  S
O4102      H4135   0.990   1_554  S
O4104     Zr4124   2.386       .  S
O4104      H4131   0.961       .  S
O4105     Zr4117   2.541       .  S
O4105      C4107   1.309       .  A
O4106      C4107   1.274       .  A
C4107      C4381   1.496       .  S
O4108     Zr4120   2.397       .  S
O4108      C4110   1.276       .  A
O4109     Zr4123   2.457       .  S
O4109      C4110   1.291       .  A
C4110      C4549   1.472       .  S
O4111     Zr4120   2.406       .  S
O4111      C4113   1.271       .  A
O4112      C4113   1.283       .  A
C4113      C4432   1.501       .  S
O4114     Zr4117   2.542       .  S
O4114      C4116   1.309       .  A
O4115     Zr4123   2.375       .  S
O4115      C4116   1.276       .  A
C4116      C4393   1.503       .  S
Zr4117     O4118   2.437       .  S
Zr4117     O4119   2.434       .  S
Zr4117     O4125   2.371       .  S
Zr4117     O4126   2.379       .  S
Zr4117     O4129   2.368       .  S
O4118      H4138   0.990       .  S
O4118      H4143   0.990       .  S
O4119      H4139   0.990       .  S
Zr4120     O4121   2.439       .  S
Zr4120     O4122   2.421       .  S
Zr4120     O4126   2.359       .  S
Zr4120     O4125   2.368       .  S
O4121      H4137   0.990       .  S
O4122      H4136   0.989       .  S
O4122      H4146   0.990       .  S
Zr4123     O4126   2.365       .  S
Zr4123     O4129   2.410       .  S
Zr4124     O4127   2.418       .  S
Zr4124     O4130   2.383       .  S
O4125      H4133   0.965       .  S
O4128      H4132   0.966       .  S
O4129      H4134   0.965       .  S
O4147     Zr4159   2.398       .  S
O4147      C4149   1.269       .  A
O4148      C4149   1.291       .  A
C4149      C4540   1.479       .  S
O4150     Zr4162   2.519       .  S
O4150      C4152   1.304       .  A
O4151      C4152   1.274       .  A
C4152      C4360   1.483       .  S
O4153     Zr4162   2.556       .  S
O4153      C4155   1.312       .  A
O4154      C4155   1.271       .  A
C4155      C4369   1.498       .  S
O4156     Zr4159   2.396       .  S
O4156      C4158   1.278       .  A
O4157      C4158   1.302       .  A
C4158      C4465   1.501       .  S
Zr4159     O4160   2.437       .  S
Zr4159     O4161   2.429       .  S
Zr4159     O4165   2.353       .  S
Zr4159     O4166   2.378       .  S
O4160      H4203   0.990       .  S
O4161      H4202   0.990       .  S
O4161      H4206   0.988       .  S
Zr4162     O4163   2.436       .  S
Zr4162     O4164   2.434       .  S
Zr4162     O4166   2.394       .  S
Zr4162     O4165   2.343       .  S
O4163      H4204   0.990       .  S
O4163      H4207   0.990       .  S
O4164      H4197   0.990       .  S
O4166      H4193   0.964       .  S
O4167     Zr4179   2.423       .  S
O4167      C4169   1.275       .  A
O4168     Zr4186   2.477       .  S
O4168      C4169   1.288       .  A
C4169      C4453   1.494       .  S
O4170     Zr4182   2.536       .  S
O4170      C4172   1.307       .  A
O4171     Zr4185   2.343       .  S
O4171      C4172   1.274       .  A
C4172      C4345   1.482       .  S
O4173     Zr4182   2.539       .  S
O4173      C4175   1.308       .  A
O4174     Zr4186   2.361       .  S
O4174      C4175   1.275       .  A
C4175      C4333   1.482       .  S
O4176     Zr4179   2.393       .  S
O4176      C4178   1.277       .  A
O4177     Zr4185   2.475       .  S
O4177      C4178   1.296       .  A
C4178      C4525   1.485       .  S
Zr4179     O4180   2.446       .  S
Zr4179     O4181   2.428       .  S
Zr4179     O4187   2.373       .  S
Zr4179     O4188   2.357       .  S
Zr4179     O4191   2.382       .  S
Zr4179     O4189   2.395       .  S
O4180      H4200   0.990       .  S
O4180      H4205   0.987       .  S
O4181      H4201   0.987       .  S
Zr4182     O4183   2.435       .  S
Zr4182     O4184   2.435       .  S
Zr4182     O4188   2.365       .  S
Zr4182     O4187   2.368       .  S
Zr4182     O4192   2.363       .  S
Zr4182     O4190   2.373       .  S
O4183      H4199   0.990       .  S
O4184      H4198   0.990       .  S
O4184      H4208   0.990       .  S
Zr4185     O4188   2.352       .  S
Zr4185     O4190   2.418       .  S
Zr4185     O4191   2.363       .  S
Zr4186     O4187   2.387       .  S
Zr4186     O4189   2.371       .  S
Zr4186     O4192   2.413       .  S
O4187      H4195   0.962       .  S
O4190      H4194   0.965       .  S
O4191      H4196   0.965       .  S
O4209      C4211   1.306       .  A
O4210     Zr4247   2.349       .  S
O4210      C4211   1.271       .  A
C4211      C4420   1.488       .  S
O4212     Zr4224   2.421       .  S
O4212      C4214   1.272       .  A
O4213     Zr4248   2.469       .  S
O4213      C4214   1.285       .  A
C4214      C4516   1.490       .  S
O4215      C4217   1.278       .  A
O4216     Zr4247   2.438       .  S
O4216      C4217   1.285       .  A
C4217      C4612   1.461       .  S
O4218     Zr4221   2.526       .  S
O4218      C4220   1.304       .  A
O4219     Zr4248   2.346       .  S
O4219      C4220   1.272       .  A
C4220      C4405   1.473       .  S
Zr4221     O4222   2.433       .  S
Zr4221     O4223   2.438       .  S
Zr4221     O4228   2.364       .  S
Zr4221     O4251   2.365       .  S
O4223      H4268   0.990       .  S
Zr4224     O4225   2.454       .  S
Zr4224     O4226   2.438   1_655  S
Zr4224     O4228   2.405       .  S
Zr4224     O4254   2.366       .  S
O4225      H4266   0.989       .  S
O4225      H4269   0.989       .  S
O4226      H4259   0.990   1_455  S
O4227     Zr4247   2.241       .  S
O4228     Zr4248   2.394       .  S
O4228      H4255   0.955       .  S
O4229     Zr4241   2.505       .  S
O4229      C4231   1.301       .  A
O4230     Zr4248   2.360       .  S
O4230      C4231   1.275       .  A
C4231      C4357   1.493       .  S
O4232      C4234   1.280       .  A
O4233     Zr4247   2.461       .  S
O4233      C4234   1.290       .  A
C4234      C4600   1.466       .  S
O4235     Zr4244   2.411       .  S
O4235      C4237   1.271       .  A
O4236     Zr4248   2.445       .  S
O4236      C4237   1.280       .  A
C4237      C4501   1.486       .  S
O4238      C4240   1.313       .  A
O4239     Zr4247   2.318       .  S
O4239      C4240   1.267       .  A
C4240      C4372   1.496       .  S
Zr4241     O4242   2.436       .  S
Zr4241     O4243   2.434       .  S
Zr4241     O4249   2.405       .  S
Zr4241     O4251   2.381       .  S
O4242      H4262   0.990       .  S
O4242      H4267   0.990       .  S
O4243      H4263   0.990       .  S
Zr4244     O4245   2.433       .  S
Zr4244     O4246   2.435   1_655  S
Zr4244     O4249   2.392       .  S
Zr4244     O4254   2.381       .  S
O4245      H4261   0.991       .  S
O4246      H4260   0.990       .  S
O4246      H4270   0.990       .  S
Zr4247     O4250   2.340       .  S
Zr4247     O4252   2.371       .  S
Zr4247     O4253   2.402       .  S
Zr4248     O4249   2.402       .  S
Zr4248     O4251   2.408       .  S
Zr4248     O4254   2.384       .  S
O4249      H4257   0.966       .  S
O4252      H4256   0.966       .  S
O4253      H4258   0.966       .  S
O4271      C4273   1.270       .  A
O4272     Zr4309   2.451       .  S
O4272      C4273   1.281       .  A
C4273      C4588   1.488       .  S
O4274     Zr4286   2.550       .  S
O4274      C4276   1.311       .  A
O4275     Zr4310   2.348       .  S
O4275      C4276   1.273       .  A
C4276      C4384   1.494       .  S
O4277      C4279   1.309       .  A
O4278     Zr4309   2.357       .  S
O4278      C4279   1.273       .  A
C4279      C4396   1.514       .  S
O4280     Zr4283   2.411       .  S
O4280      C4282   1.272       .  A
O4281     Zr4310   2.455       .  S
O4281      C4282   1.276       .  A
C4282      C4489   1.497       .  S
Zr4283     O4284   2.435       .  S
Zr4283     O4285   2.443       .  S
Zr4283     O4290   2.370       .  S
Zr4283     O4313   2.407       .  S
O4285      H4326   0.990       .  S
O4285      H4330   0.989       .  S
Zr4286     O4287   2.434       .  S
Zr4286     O4288   2.435       .  S
Zr4286     O4290   2.375       .  S
Zr4286     O4316   2.385       .  S
O4287      H4328   0.990       .  S
O4287      H4331   0.990       .  S
O4289     Zr4309   2.275       .  S
O4290     Zr4310   2.407       .  S
O4290      H4317   0.961       .  S
O4291     Zr4303   2.432       .  S
O4291      C4293   1.286       .  A
O4292     Zr4310   2.503       .  S
O4292      C4293   1.299       .  A
C4293      C4480   1.498       .  S
O4294      C4296   1.306       .  A
O4295     Zr4309   2.365       .  S
O4295      C4296   1.275       .  A
C4296      C4348   1.489       .  S
O4297     Zr4306   2.535       .  S
O4297      C4299   1.306       .  A
O4298     Zr4310   2.332       .  S
O4298      C4299   1.269       .  A
C4299      C4336   1.474       .  S
O4300      C4302   1.268       .  A
O4301     Zr4309   2.450       .  S
O4301      C4302   1.280       .  A
C4302      C4573   1.472       .  S
Zr4303     O4304   2.447       .  S
Zr4303     O4305   2.436       .  S
Zr4303     O4311   2.393       .  S
Zr4303     O4313   2.359       .  S
O4304      H4324   0.989       .  S
O4304      H4329   0.989       .  S
O4305      H4325   0.990       .  S
Zr4306     O4307   2.438       .  S
Zr4306     O4308   2.437       .  S
Zr4306     O4311   2.351       .  S
Zr4306     O4316   2.370       .  S
O4307      H4323   0.990   1_655  S
O4308      H4322   0.990   1_655  S
O4308      H4332   0.990   1_655  S
Zr4309     O4314   2.406       .  S
Zr4309     O4315   2.398       .  S
Zr4309     O4312   2.264       .  S
Zr4310     O4311   2.372       .  S
Zr4310     O4313   2.385       .  S
Zr4310     O4316   2.410       .  S
O4311      H4319   0.960       .  S
O4314      H4318   0.965       .  S
O4315      H4320   0.967       .  S
C4333      C4334   1.403       .  A
C4333      C4338   1.411       .  A
C4334      C4335   1.407       .  A
C4334      H4339   1.084       .  S
C4335      C4336   1.413       .  A
C4335      O4340   1.372       .  S
C4336      C4337   1.403       .  A
C4337      C4338   1.407       .  A
C4337      H4341   1.084       .  S
C4338      O4342   1.368       .  S
O4340      H4344   0.991       .  S
O4342      H4343   0.992       .  S
C4345      C4346   1.411       .  A
C4345      C4350   1.404       .  A
C4346      C4347   1.401       .  A
C4346      H4351   1.077       .  S
C4347      C4348   1.401       .  A
C4347      O4352   1.371       .  S
C4348      C4349   1.417       .  A
C4349      C4350   1.409       .  A
C4349      H4353   1.083       .  S
C4350      O4354   1.372       .  S
O4352      H4356   0.992       .  S
O4354      H4355   0.992       .  S
C4357      C4358   1.421       .  A
C4357      C4362   1.403       .  A
C4358      C4359   1.400       .  A
C4358      H4363   1.083       .  S
C4359      C4360   1.398       .  A
C4359      O4364   1.371       .  S
C4360      C4361   1.415       .  A
C4361      C4362   1.399       .  A
C4361      H4365   1.081       .  S
C4362      O4366   1.372       .  S
O4364      H4368   0.992       .  S
O4366      H4367   0.992       .  S
C4369      C4370   1.424       .  A
C4369      C4374   1.399       .  A
C4370      C4371   1.413       .  A
C4370      H4375   1.084       .  S
C4371      C4372   1.401       .  A
C4371      O4376   1.371       .  S
C4372      C4373   1.420       .  A
C4373      C4374   1.401       .  A
C4373      H4377   1.081       .  S
C4374      O4378   1.370       .  S
O4376      H4380   0.992       .  S
O4378      H4379   0.991       .  S
C4381      C4382   1.421       .  A
C4381      C4386   1.401       .  A
C4382      C4383   1.407       .  A
C4382      H4387   1.084       .  S
C4383      C4384   1.400       .  A
C4383      O4388   1.371       .  S
C4384      C4385   1.419       .  A
C4385      C4386   1.405       .  A
C4385      H4389   1.083       .  S
C4386      O4390   1.372       .  S
O4388      H4392   0.992       .  S
O4390      H4391   0.992       .  S
C4393      C4394   1.423       .  A
C4393      C4398   1.399       .  A
C4394      C4395   1.414       .  A
C4394      H4399   1.084       .  S
C4395      C4396   1.407       .  A
C4395      O4400   1.371       .  S
C4396      C4397   1.424       .  A
C4397      C4398   1.403       .  A
C4397      H4401   1.083       .  S
C4398      O4402   1.371       .  S
O4400      H4404   0.992       .  S
O4402      H4403   0.992       .  S
C4405      C4406   1.407       .  A
C4405      C4410   1.405       .  A
C4406      C4407   1.404       .  A
C4406      H4411   1.084       .  S
C4407      C4408   1.408       .  A
C4407      O4412   1.372       .  S
C4408      C4409   1.409       .  A
C4409      C4410   1.406       .  A
C4409      H4413   1.083       .  S
C4410      O4414   1.373       .  S
O4412      H4416   0.992       .  S
O4414      H4415   0.991       .  S
C4417      C4418   1.400       .  A
C4417      C4422   1.415       .  A
C4418      C4419   1.406       .  A
C4418      H4423   1.084       .  S
C4419      C4420   1.419       .  A
C4419      O4424   1.374       .  S
C4420      C4421   1.400       .  A
C4421      C4422   1.407       .  A
C4421      H4425   1.078       .  S
C4422      O4426   1.371       .  S
O4424      H4428   0.992       .  S
O4426      H4427   0.992       .  S
C4429      C4430   1.410       .  A
C4429      C4434   1.404       .  A
C4430      C4431   1.413       .  A
C4430      H4435   1.083       .  S
C4431      C4432   1.414       .  A
C4431      O4436   1.371       .  S
C4432      C4433   1.407       .  A
C4433      C4434   1.397       .  A
C4433      H4437   1.078       .  S
C4434      O4438   1.373       .  S
O4436      H4440   0.991       .  S
O4438      H4439   0.992       .  S
C4441      C4442   1.419       .  A
C4441      C4446   1.401       .  A
C4442      C4443   1.409       .  A
C4442      H4447   1.084       .  S
C4443      C4444   1.401       .  A
C4443      O4448   1.370       .  S
C4444      C4445   1.416       .  A
C4445      C4446   1.401       .  A
C4445      H4449   1.084       .  S
C4446      O4450   1.371       .  S
O4448      H4452   0.991       .  S
O4450      H4451   0.991       .  S
C4453      C4454   1.415       .  A
C4453      C4458   1.400       .  A
C4454      C4455   1.414       .  A
C4454      H4459   1.079       .  S
C4455      C4456   1.408       .  A
C4455      O4460   1.371       .  S
C4456      C4457   1.417       .  A
C4457      C4458   1.402       .  A
C4457      H4461   1.081       .  S
C4458      O4462   1.372       .  S
O4460      H4464   0.992       .  S
O4462      H4463   0.992       .  S
C4465      C4466   1.419       .  A
C4465      C4470   1.401       .  A
C4466      C4467   1.407       .  A
C4466      H4471   1.084       .  S
C4467      C4468   1.404       .  A
C4467      O4472   1.372       .  S
C4468      C4469   1.423       .  A
C4469      C4470   1.408       .  A
C4469      H4473   1.083       .  S
C4470      O4474   1.371       .  S
O4472      H4476   0.992       .  S
O4474      H4475   0.992       .  S
C4477      C4478   1.416       .  A
C4477      C4482   1.400       .  A
C4478      C4479   1.419       .  A
C4478      H4483   1.082       .  S
C4479      C4480   1.409       .  A
C4479      O4484   1.370       .  S
C4480      C4481   1.411       .  A
C4481      C4482   1.396       .  A
C4481      H4485   1.083       .  S
C4482      O4486   1.372       .  S
O4484      H4488   0.992       .  S
O4486      H4487   0.991       .  S
C4489      C4490   1.416       .  A
C4489      C4494   1.404       .  A
C4490      C4491   1.420       .  A
C4490      H4495   1.081       .  S
C4491      C4492   1.410       .  A
C4491      O4496   1.371       .  S
C4492      C4493   1.408       .  A
C4493      C4494   1.395       .  A
C4493      H4497   1.080       .  S
C4494      O4498   1.371       .  S
O4496      H4500   0.992       .  S
O4498      H4499   0.992       .  S
C4501      C4502   1.409       .  A
C4501      C4506   1.408       .  A
C4502      C4503   1.413       .  A
C4502      H4507   1.084       .  S
C4503      C4504   1.413       .  A
C4503      O4508   1.371       .  S
C4504      C4505   1.408       .  A
C4505      C4506   1.393       .  A
C4505      H4509   1.082       .  S
C4506      O4510   1.372       .  S
O4508      H4512   0.991       .  S
O4510      H4511   0.992       .  S
C4513      C4514   1.412       .  A
C4513      C4518   1.401       .  A
C4514      C4515   1.406       .  A
C4514      H4519   1.080       .  S
C4515      C4516   1.401       .  A
C4515      O4520   1.371       .  S
C4516      C4517   1.412       .  A
C4517      C4518   1.400       .  A
C4517      H4521   1.079       .  S
C4518      O4522   1.372       .  S
O4520      H4524   0.992       .  S
O4522      H4523   0.991       .  S
C4525      C4526   1.393       .  A
C4525      C4530   1.424       .  A
C4526      C4527   1.396       .  A
C4526      H4531   1.084       .  S
C4527      C4528   1.423       .  A
C4527      O4532   1.370       .  S
C4528      C4529   1.394       .  A
C4529      C4530   1.402       .  A
C4529      H4533   1.083       .  S
C4530      O4534   1.372       .  S
O4532      H4536   0.990       .  S
O4534      H4535   0.992       .  S
C4537      C4538   1.397       .  A
C4537      C4542   1.434       .  A
C4538      C4539   1.404       .  A
C4538      H4543   1.082       .  S
C4539      C4540   1.418       .  A
C4539      O4544   1.371       .  S
C4540      C4541   1.392       .  A
C4541      C4542   1.402       .  A
C4541      H4545   1.084       .  S
C4542      O4546   1.372       .  S
O4544      H4548   0.992       .  S
O4546      H4547   0.992       .  S
C4549      C4550   1.411       .  A
C4549      C4554   1.397       .  A
C4550      C4551   1.406       .  A
C4550      H4555   1.084       .  S
C4551      C4552   1.406       .  A
C4551      O4556   1.371       .  S
C4552      C4553   1.419       .  A
C4553      C4554   1.398       .  A
C4553      H4557   1.084   1_554  S
C4554      O4558   1.372       .  S
O4556      H4560   0.992       .  S
O4558      H4559   0.992       .  S
C4561      C4562   1.409       .  A
C4561      C4566   1.408       .  A
C4562      C4563   1.413       .  A
C4562      H4567   1.082       .  S
C4563      C4564   1.407       .  A
C4563      O4568   1.372       .  S
C4564      C4565   1.406       .  A
C4565      C4566   1.400       .  A
C4565      H4569   1.084   1_554  S
C4566      O4570   1.372   1_554  S
O4568      H4572   0.992       .  S
O4570      H4571   0.991       .  S
C4573      C4574   1.412       .  A
C4573      C4578   1.399       .  A
C4574      C4575   1.413       .  A
C4574      H4579   1.083       .  S
C4575      C4576   1.403       .  A
C4575      O4580   1.372       .  S
C4576      C4577   1.413       .  A
C4577      C4578   1.394       .  A
C4577      H4581   1.083       .  S
C4578      O4582   1.372       .  S
O4580      H4584   0.991       .  S
O4582      H4583   0.992       .  S
C4585      C4586   1.413       .  A
C4585      C4590   1.400       .  A
C4586      C4587   1.413       .  A
C4586      H4591   1.083       .  S
C4587      C4588   1.410       .  A
C4587      O4592   1.371       .  S
C4588      C4589   1.404       .  A
C4589      C4590   1.389       .  A
C4589      H4593   1.075       .  S
C4590      O4594   1.370       .  S
O4592      H4596   0.992       .  S
O4594      H4595   0.992       .  S
C4597      C4598   1.399       .  A
C4597      C4602   1.418       .  A
C4598      C4599   1.407       .  A
C4598      H4603   1.083       .  S
C4599      C4600   1.417       .  A
C4599      O4604   1.371       .  S
C4600      C4601   1.386       .  A
C4601      C4602   1.396       .  A
C4601      H4605   1.084       .  S
C4602      O4606   1.371       .  S
O4604      H4608   0.991       .  S
O4606      H4607   0.992       .  S
C4609      C4610   1.392       .  A
C4609      C4614   1.412       .  A
C4610      C4611   1.396       .  A
C4610      H4615   1.084       .  S
C4611      C4612   1.414       .  A
C4611      O4616   1.372       .  S
C4612      C4613   1.395       .  A
C4613      C4614   1.398       .  A
C4613      H4617   1.084       .  S
C4614      O4618   1.373       .  S
O4616      H4620   0.992       .  S
O4618      H4619   0.992       .  S
O4621     Zr4633   2.536       .  S
O4621      C4623   1.305       .  A
O4622      C4623   1.272       .  A
C4623      C5224   1.475       .  S
O4624     Zr4636   2.430       .  S
O4624      C4626   1.276       .  A
O4625     Zr4660   2.452       .  S
O4625      C4626   1.282       .  A
C4626      C5245   1.489       .  S
O4627     Zr4636   2.398       .  S
O4627      C4629   1.280       .  A
O4628      C4629   1.286       .  A
C4629      C5269   1.459       .  S
O4630     Zr4633   2.527       .  S
O4630      C4632   1.305       .  A
O4631     Zr4660   2.370       .  S
O4631      C4632   1.276       .  A
C4632      C5212   1.490       .  S
Zr4633     O4634   2.435       .  S
Zr4633     O4635   2.436       .  S
Zr4633     O4639   2.357       .  S
Zr4633     O4640   2.384       .  S
O4634      H4677   0.990       .  S
O4635      H4676   0.990       .  S
O4635      H4680   0.990       .  S
Zr4636     O4637   2.432       .  S
Zr4636     O4638   2.436       .  S
Zr4636     O4640   2.390       .  S
Zr4636     O4639   2.361       .  S
Zr4636     O4664   2.386       .  S
Zr4636     O4666   2.392       .  S
O4637      H4678   0.989       .  S
O4637      H4681   0.988       .  S
O4638      H4671   0.990       .  S
O4640     Zr4660   2.394       .  S
O4640      H4667   0.964       .  S
O4641     Zr4653   2.519       .  S
O4641      C4643   1.303       .  A
O4642      C4643   1.273       .  A
C4643      C5188   1.493       .  S
O4644     Zr4656   2.406       .  S
O4644      C4646   1.281       .  A
O4645     Zr4659   2.471       .  S
O4645      C4646   1.291       .  A
C4646      C5257   1.471       .  S
O4647     Zr4656   2.434       .  S
O4647      C4649   1.281       .  A
O4648      C4649   1.290       .  A
C4649      C5236   1.490       .  S
O4650     Zr4653   2.534       .  S
O4650      C4652   1.304       .  A
O4651     Zr4659   2.351       .  S
O4651      C4652   1.266       .  A
C4652      C5197   1.502       .  S
Zr4653     O4654   2.437       .  S
Zr4653     O4655   2.434       .  S
Zr4653     O4661   2.372       .  S
Zr4653     O4662   2.360       .  S
Zr4653     O4665   2.367       .  S
Zr4653     O4663   2.381       .  S
O4654      H4674   0.990       .  S
O4654      H4679   0.990       .  S
O4655      H4675   0.990       .  S
Zr4656     O4657   2.442       .  S
Zr4656     O4658   2.437       .  S
Zr4656     O4662   2.367       .  S
Zr4656     O4661   2.389       .  S
O4657      H4673   0.989       .  S
O4658      H4672   0.987       .  S
O4658      H4682   0.990       .  S
Zr4659     O4662   2.349       .  S
Zr4659     O4665   2.406       .  S
Zr4660     O4666   2.381       .  S
O4661      H4669   0.959       .  S
O4664      H4668   0.967       .  S
O4665      H4670   0.966       .  S
O4683     Zr4695   2.408       .  S
O4683      C4685   1.280       .  A
O4684      C4685   1.293       .  A
C4685      C5173   1.470       .  S
O4686     Zr4698   2.543       .  S
O4686      C4688   1.308       .  A
O4687      C4688   1.274       .  A
C4688      C5089   1.472       .  S
O4689     Zr4698   2.510       .  S
O4689      C4691   1.303       .  A
O4690     Zr4721   2.369   1_554  S
C4691      C5101   1.489       .  S
O4692     Zr4695   2.431       .  S
O4692      C4694   1.277       .  A
O4693      C4694   1.290       .  A
C4694      C5152   1.497       .  S
Zr4695     O4696   2.443       .  S
Zr4695     O4697   2.432       .  S
Zr4695     O4701   2.366       .  S
Zr4695     O4702   2.381       .  S
O4696      H4739   0.990       .  S
O4697      H4738   0.986       .  S
O4697      H4742   0.990       .  S
Zr4698     O4699   2.437       .  S
Zr4698     O4700   2.434       .  S
Zr4698     O4702   2.359       .  S
Zr4698     O4701   2.366       .  S
O4699      H4740   0.990       .  S
O4699      H4743   0.990       .  S
O4700      H4733   0.990       .  S
O4702      H4729   0.956       .  S
O4703     Zr4715   2.435       .  S
O4703      C4705   1.279       .  A
O4704     Zr4722   2.447   1_556  S
O4704      C4705   1.281       .  A
C4705      C5137   1.491       .  S
O4706     Zr4718   2.543       .  S
O4706      C4708   1.309       .  A
O4707     Zr4721   2.356       .  S
O4707      C4708   1.275       .  A
C4708      C5128   1.505       .  S
O4709     Zr4718   2.528       .  S
O4709      C4711   1.294       .  A
O4710     Zr4722   2.380   1_556  S
O4710      C4711   1.262       .  A
C4711      C5116   1.508       .  S
O4712     Zr4715   2.418       .  S
O4712      C4714   1.275       .  A
O4713     Zr4721   2.466       .  S
O4713      C4714   1.286       .  A
C4714      C5164   1.499       .  S
Zr4715     O4716   2.440       .  S
Zr4715     O4717   2.434       .  S
Zr4715     O4723   2.371       .  S
Zr4715     O4724   2.380       .  S
Zr4715     O4727   2.414       .  S
Zr4715     O4725   2.393       .  S
O4716      H4736   0.989       .  S
O4716      H4741   0.989       .  S
O4717      H4737   0.990       .  S
Zr4718     O4719   2.435       .  S
Zr4718     O4720   2.435       .  S
Zr4718     O4724   2.380       .  S
Zr4718     O4723   2.387       .  S
Zr4718     O4728   2.394   1_556  S
Zr4718     O4726   2.380       .  S
O4719      H4735   0.990       .  S
O4720      H4734   0.990       .  S
O4720      H4744   0.990       .  S
Zr4721     O4724   2.389       .  S
Zr4721     O4726   2.406       .  S
Zr4721     O4727   2.384       .  S
Zr4722     O4723   2.419   1_554  S
Zr4722     O4725   2.385   1_554  S
Zr4722     O4728   2.409       .  S
O4723      H4731   0.963       .  S
O4726      H4730   0.965       .  S
O4727      H4732   0.966       .  S
O4745     Zr4757   2.540       .  S
O4745      C4747   1.308       .  A
O4746      C4747   1.272       .  A
C4747      C5077   1.478       .  S
O4748     Zr4760   2.413       .  S
O4748      C4750   1.280       .  A
O4749     Zr4784   2.484       .  S
O4749      C4750   1.295       .  A
C4750      C5104   1.490       .  S
O4751     Zr4760   2.393       .  S
O4751      C4753   1.270       .  A
O4752      C4753   1.287       .  A
C4753      C5221   1.494       .  S
O4754     Zr4757   2.531       .  S
O4754      C4756   1.305       .  A
O4755     Zr4784   2.339       .  S
O4755      C4756   1.271       .  A
C4756      C5068   1.471       .  S
Zr4757     O4758   2.435       .  S
Zr4757     O4759   2.437       .  S
Zr4757     O4764   2.358       .  S
Zr4757     O4787   2.373       .  S
Zr4757     O4763   2.283       .  S
O4758      H4801   0.990       .  S
O4759      H4800   0.990       .  S
O4759      H4804   0.990       .  S
Zr4760     O4761   2.437       .  S
Zr4760     O4762   2.433       .  S
Zr4760     O4764   2.375       .  S
Zr4760     O4788   2.396       .  S
Zr4760     O4790   2.351       .  S
Zr4760     O4763   2.289       .  S
O4761      H4802   0.990       .  S
O4761      H4805   0.991       .  S
O4762      H4795   0.990       .  S
O4764     Zr4784   2.382       .  S
O4764      H4791   0.961       .  S
O4765     Zr4777   2.555       .  S
O4765      C4767   1.311       .  A
O4766      C4767   1.269       .  A
C4767      C5041   1.501       .  S
O4768     Zr4780   2.393       .  S
O4768      C4770   1.277       .  A
O4769     Zr4783   2.470       .  S
O4769      C4770   1.294       .  A
C4770      C5209   1.476       .  S
O4771     Zr4780   2.408       .  S
O4771      C4773   1.271       .  A
O4772      C4773   1.285       .  A
C4773      C5092   1.507       .  S
O4774     Zr4777   2.542       .  S
O4774      C4776   1.309       .  A
O4775     Zr4783   2.384       .  S
O4775      C4776   1.278       .  A
C4776      C5053   1.504       .  S
Zr4777     O4778   2.434       .  S
Zr4777     O4779   2.438       .  S
Zr4777     O4785   2.367       .  S
Zr4777     O4786   2.387       .  S
Zr4777     O4789   2.372       .  S
O4778      H4798   0.990       .  S
O4778      H4803   0.990       .  S
O4779      H4799   0.990       .  S
Zr4780     O4781   2.437       .  S
Zr4780     O4782   2.429       .  S
Zr4780     O4786   2.369       .  S
Zr4780     O4785   2.369       .  S
O4781      H4797   0.990       .  S
O4782      H4796   0.989       .  S
O4782      H4806   0.990       .  S
Zr4783     O4786   2.369       .  S
Zr4783     O4789   2.412       .  S
Zr4784     O4787   2.418       .  S
Zr4784     O4790   2.377       .  S
O4785      H4793   0.964       .  S
O4788      H4792   0.965       .  S
O4789      H4794   0.965       .  S
O4807     Zr4819   2.398       .  S
O4807      C4809   1.272       .  A
O4808      C4809   1.296       .  A
C4809      C5200   1.480       .  S
O4810     Zr4822   2.522       .  S
O4810      C4812   1.305       .  A
O4811      C4812   1.275       .  A
C4812      C5020   1.491       .  S
O4813     Zr4822   2.558       .  S
O4813      C4815   1.313       .  A
O4814      C4815   1.271       .  A
C4815      C5029   1.496       .  S
O4816     Zr4819   2.396       .  S
O4816      C4818   1.277       .  A
O4817      C4818   1.302       .  A
C4818      C5125   1.499       .  S
Zr4819     O4820   2.439       .  S
Zr4819     O4821   2.433       .  S
Zr4819     O4825   2.350       .  S
Zr4819     O4826   2.379       .  S
O4820      H4863   0.990       .  S
O4821      H4862   0.990       .  S
O4821      H4866   0.988       .  S
Zr4822     O4823   2.436       .  S
Zr4822     O4824   2.435       .  S
Zr4822     O4826   2.392       .  S
Zr4822     O4825   2.349       .  S
O4823      H4864   0.990       .  S
O4823      H4867   0.990       .  S
O4824      H4857   0.990       .  S
O4826      H4853   0.964       .  S
O4827     Zr4839   2.426       .  S
O4827      C4829   1.276       .  A
O4828     Zr4846   2.474       .  S
O4828      C4829   1.288       .  A
C4829      C5113   1.493       .  S
O4830     Zr4842   2.554       .  S
O4830      C4832   1.311       .  A
O4831     Zr4845   2.333       .  S
O4831      C4832   1.272       .  A
C4832      C5005   1.490       .  S
O4833     Zr4842   2.542       .  S
O4833      C4835   1.308       .  A
O4834     Zr4846   2.364       .  S
O4834      C4835   1.276       .  A
C4835      C4993   1.483       .  S
O4836     Zr4839   2.400       .  S
O4836      C4838   1.277       .  A
O4837     Zr4845   2.479       .  S
O4837      C4838   1.296       .  A
C4838      C5185   1.486       .  S
Zr4839     O4840   2.450       .  S
Zr4839     O4841   2.426       .  S
Zr4839     O4847   2.369       .  S
Zr4839     O4848   2.358       .  S
Zr4839     O4851   2.382       .  S
Zr4839     O4849   2.395       .  S
O4840      H4860   0.990       .  S
O4840      H4865   0.987       .  S
O4841      H4861   0.987       .  S
Zr4842     O4843   2.436       .  S
Zr4842     O4844   2.436       .  S
Zr4842     O4848   2.360       .  S
Zr4842     O4847   2.372       .  S
Zr4842     O4852   2.370       .  S
Zr4842     O4850   2.373       .  S
O4843      H4859   0.990       .  S
O4844      H4858   0.990       .  S
O4844      H4868   0.990       .  S
Zr4845     O4848   2.351       .  S
Zr4845     O4850   2.417       .  S
Zr4845     O4851   2.362       .  S
Zr4846     O4847   2.385       .  S
Zr4846     O4849   2.367       .  S
Zr4846     O4852   2.415       .  S
O4847      H4855   0.956       .  S
O4850      H4854   0.965       .  S
O4851      H4856   0.965       .  S
O4869      C4871   1.305       .  A
O4870     Zr4907   2.331       .  S
O4870      C4871   1.269       .  A
C4871      C5080   1.483       .  S
O4872     Zr4884   2.424       .  S
O4872      C4874   1.272       .  A
O4873     Zr4908   2.471       .  S
O4873      C4874   1.286       .  A
C4874      C5176   1.490       .  S
O4875      C4877   1.278       .  A
O4876     Zr4907   2.427       .  S
O4876      C4877   1.283       .  A
C4877      C5272   1.455       .  S
O4878     Zr4881   2.533       .  S
O4878      C4880   1.305       .  A
O4879     Zr4908   2.348       .  S
O4879      C4880   1.272       .  A
C4880      C5065   1.475       .  S
Zr4881     O4882   2.435       .  S
Zr4881     O4883   2.437       .  S
Zr4881     O4888   2.364       .  S
Zr4881     O4911   2.366       .  S
O4883      H4928   0.990       .  S
Zr4884     O4885   2.455       .  S
Zr4884     O4886   2.439   1_655  S
Zr4884     O4888   2.406       .  S
Zr4884     O4914   2.371       .  S
O4885      H4926   0.989       .  S
O4885      H4929   0.989       .  S
O4886      H4919   0.991       .  S
O4887     Zr4907   2.241       .  S
O4888     Zr4908   2.397       .  S
O4888      H4915   0.956       .  S
O4889     Zr4901   2.509       .  S
O4889      C4891   1.302       .  A
O4890     Zr4908   2.364       .  S
O4890      C4891   1.275       .  A
C4891      C5017   1.497       .  S
O4892      C4894   1.282       .  A
O4893     Zr4907   2.441       .  S
O4893      C4894   1.285       .  A
C4894      C5260   1.460       .  S
O4895     Zr4904   2.414       .  S
O4895      C4897   1.270       .  A
O4896     Zr4908   2.453       .  S
O4896      C4897   1.280       .  A
C4897      C5161   1.492       .  S
O4898      C4900   1.311       .  A
O4899     Zr4907   2.322       .  S
O4899      C4900   1.267       .  A
C4900      C5032   1.495       .  S
Zr4901     O4902   2.435       .  S
Zr4901     O4903   2.434       .  S
Zr4901     O4909   2.407       .  S
Zr4901     O4911   2.376       .  S
O4902      H4922   0.990       .  S
O4902      H4927   0.990       .  S
O4903      H4923   0.990       .  S
Zr4904     O4905   2.433       .  S
Zr4904     O4906   2.437   1_655  S
Zr4904     O4909   2.404       .  S
Zr4904     O4914   2.379       .  S
O4905      H4921   0.990       .  S
O4906      H4920   0.990   1_455  S
O4906      H4930   0.990       .  S
Zr4907     O4910   2.336       .  S
Zr4907     O4912   2.366       .  S
Zr4907     O4913   2.399       .  S
Zr4908     O4909   2.406       .  S
Zr4908     O4911   2.404       .  S
Zr4908     O4914   2.390       .  S
O4909      H4917   0.966       .  S
O4912      H4916   0.966       .  S
O4913      H4918   0.966       .  S
O4931      C4933   1.275       .  A
O4932     Zr4969   2.453       .  S
O4932      C4933   1.283       .  A
C4933      C5248   1.493       .  S
O4934     Zr4946   2.557       .  S
O4934      C4936   1.311       .  A
O4935     Zr4970   2.344       .  S
O4935      C4936   1.272       .  A
C4936      C5044   1.502       .  S
O4937      C4939   1.307       .  A
O4938     Zr4969   2.381       .  S
O4938      C4939   1.278       .  A
C4939      C5056   1.513       .  S
O4940     Zr4943   2.406       .  S
O4940      C4942   1.271       .  A
O4941     Zr4970   2.459       .  S
O4941      C4942   1.278       .  A
C4942      C5149   1.496       .  S
Zr4943     O4944   2.438       .  S
Zr4943     O4945   2.442       .  S
Zr4943     O4950   2.373       .  S
Zr4943     O4973   2.406       .  S
O4945      H4986   0.989       .  S
O4945      H4990   0.989       .  S
Zr4946     O4947   2.435       .  S
Zr4946     O4948   2.436       .  S
Zr4946     O4950   2.377       .  S
Zr4946     O4976   2.384       .  S
O4947      H4988   0.990       .  S
O4947      H4991   0.990       .  S
O4949     Zr4969   2.388       .  S
O4950     Zr4970   2.400       .  S
O4950      H4977   0.964       .  S
O4951     Zr4963   2.427       .  S
O4951      C4953   1.285       .  A
O4952     Zr4970   2.494       .  S
O4952      C4953   1.296       .  A
C4953      C5140   1.498       .  S
O4954      C4956   1.306       .  A
O4955     Zr4969   2.365       .  S
O4955      C4956   1.276       .  A
C4956      C5008   1.493       .  S
O4957     Zr4966   2.548       .  S
O4957      C4959   1.308       .  A
O4958     Zr4970   2.320       .  S
O4958      C4959   1.267       .  A
C4959      C4996   1.476       .  S
O4960      C4962   1.268       .  A
O4961     Zr4969   2.465       .  S
O4961      C4962   1.284       .  A
C4962      C5233   1.480       .  S
Zr4963     O4964   2.441       .  S
Zr4963     O4965   2.434       .  S
Zr4963     O4971   2.380       .  S
Zr4963     O4973   2.356       .  S
O4964      H4984   0.990       .  S
O4964      H4989   0.990       .  S
O4965      H4985   0.990       .  S
Zr4966     O4967   2.436       .  S
Zr4966     O4968   2.439       .  S
Zr4966     O4971   2.348       .  S
Zr4966     O4976   2.372       .  S
O4967      H4983   0.990       .  S
O4968      H4982   0.990   1_655  S
O4968      H4992   0.990   1_655  S
Zr4969     O4974   2.404       .  S
Zr4969     O4975   2.405       .  S
Zr4969     O4972   2.267       .  S
Zr4970     O4971   2.382       .  S
Zr4970     O4973   2.381       .  S
Zr4970     O4976   2.414       .  S
O4971      H4979   0.961       .  S
O4974      H4978   0.965       .  S
O4975      H4980   0.967       .  S
C4993      C4994   1.401       .  A
C4993      C4998   1.412       .  A
C4994      C4995   1.407       .  A
C4994      H4999   1.084       .  S
C4995      C4996   1.414       .  A
C4995      O5000   1.373       .  S
C4996      C4997   1.404       .  A
C4997      C4998   1.408       .  A
C4997      H5001   1.084       .  S
C4998      O5002   1.368       .  S
O5000      H5004   0.991       .  S
O5002      H5003   0.992       .  S
C5005      C5006   1.416       .  A
C5005      C5010   1.403       .  A
C5006      C5007   1.402       .  A
C5006      H5011   1.080       .  S
C5007      C5008   1.401       .  A
C5007      O5012   1.372       .  S
C5008      C5009   1.419       .  A
C5009      C5010   1.410       .  A
C5009      H5013   1.084       .  S
C5010      O5014   1.372       .  S
O5012      H5016   0.992       .  S
O5014      H5015   0.992       .  S
C5017      C5018   1.421       .  A
C5017      C5022   1.403       .  A
C5018      C5019   1.403       .  A
C5018      H5023   1.083       .  S
C5019      C5020   1.399       .  A
C5019      O5024   1.372       .  S
C5020      C5021   1.418       .  A
C5021      C5022   1.402       .  A
C5021      H5025   1.082       .  S
C5022      O5026   1.372       .  S
O5024      H5028   0.992       .  S
O5026      H5027   0.992       .  S
C5029      C5030   1.424       .  A
C5029      C5034   1.398       .  A
C5030      C5031   1.412       .  A
C5030      H5035   1.084       .  S
C5031      C5032   1.402       .  A
C5031      O5036   1.371       .  S
C5032      C5033   1.420       .  A
C5033      C5034   1.400       .  A
C5033      H5037   1.081       .  S
C5034      O5038   1.370       .  S
O5036      H5040   0.992       .  S
O5038      H5039   0.992       .  S
C5041      C5042   1.425       .  A
C5041      C5046   1.399       .  A
C5042      C5043   1.407       .  A
C5042      H5047   1.083       .  S
C5043      C5044   1.399       .  A
C5043      O5048   1.372       .  S
C5044      C5045   1.424       .  A
C5045      C5046   1.405       .  A
C5045      H5049   1.083       .  S
C5046      O5050   1.372       .  S
O5048      H5052   0.992       .  S
O5050      H5051   0.992       .  S
C5053      C5054   1.420       .  A
C5053      C5058   1.401       .  A
C5054      C5055   1.415       .  A
C5054      H5059   1.084       .  S
C5055      C5056   1.409       .  A
C5055      O5060   1.371       .  S
C5056      C5057   1.421       .  A
C5057      C5058   1.404       .  A
C5057      H5061   1.083       .  S
C5058      O5062   1.371       .  S
O5060      H5064   0.992       .  S
O5062      H5063   0.992       .  S
C5065      C5066   1.407       .  A
C5065      C5070   1.407       .  A
C5066      C5067   1.406       .  A
C5066      H5071   1.084       .  S
C5067      C5068   1.409       .  A
C5067      O5072   1.373       .  S
C5068      C5069   1.408       .  A
C5069      C5070   1.405       .  A
C5069      H5073   1.084       .  S
C5070      O5074   1.372       .  S
O5072      H5076   0.990       .  S
O5074      H5075   0.991       .  S
C5077      C5078   1.396       .  A
C5077      C5082   1.419       .  A
C5078      C5079   1.402       .  A
C5078      H5083   1.084       .  S
C5079      C5080   1.420       .  A
C5079      O5084   1.373       .  S
C5080      C5081   1.397       .  A
C5081      C5082   1.405       .  A
C5081      H5085   1.080       .  S
C5082      O5086   1.372       .  S
O5084      H5088   0.992       .  S
O5086      H5087   0.992       .  S
C5089      C5090   1.412       .  A
C5089      C5094   1.402       .  A
C5090      C5091   1.416       .  A
C5090      H5095   1.081       .  S
C5091      C5092   1.413       .  A
C5091      O5096   1.369       .  S
C5092      C5093   1.407       .  A
C5093      C5094   1.396       .  A
C5093      H5097   1.072       .  S
C5094      O5098   1.372       .  S
O5096      H5100   0.990       .  S
O5098      H5099   0.991       .  S
C5101      C5102   1.417       .  A
C5101      C5106   1.402       .  A
C5102      C5103   1.408       .  A
C5102      H5107   1.084       .  S
C5103      C5104   1.401       .  A
C5103      O5108   1.370       .  S
C5104      C5105   1.415       .  A
C5105      C5106   1.400       .  A
C5105      H5109   1.084       .  S
C5106      O5110   1.372       .  S
O5108      H5112   0.992       .  S
O5110      H5111   0.992       .  S
C5113      C5114   1.414       .  A
C5113      C5118   1.400       .  A
C5114      C5115   1.412       .  A
C5114      H5119   1.078       .  S
C5115      C5116   1.406       .  A
C5115      O5120   1.371       .  S
C5116      C5117   1.419       .  A
C5117      C5118   1.404       .  A
C5117      H5121   1.082       .  S
C5118      O5122   1.372       .  S
O5120      H5124   0.992       .  S
O5122      H5123   0.992       .  S
C5125      C5126   1.420       .  A
C5125      C5130   1.399       .  A
C5126      C5127   1.408       .  A
C5126      H5131   1.084       .  S
C5127      C5128   1.403       .  A
C5127      O5132   1.372       .  S
C5128      C5129   1.423       .  A
C5129      C5130   1.406       .  A
C5129      H5133   1.083       .  S
C5130      O5134   1.371       .  S
O5132      H5136   0.992       .  S
O5134      H5135   0.992       .  S
C5137      C5138   1.417       .  A
C5137      C5142   1.401       .  A
C5138      C5139   1.422       .  A
C5138      H5143   1.083       .  S
C5139      C5140   1.409       .  A
C5139      O5144   1.371       .  S
C5140      C5141   1.411       .  A
C5141      C5142   1.394       .  A
C5141      H5145   1.083       .  S
C5142      O5146   1.373       .  S
O5144      H5148   0.992       .  S
O5146      H5147   0.992       .  S
C5149      C5150   1.415       .  A
C5149      C5154   1.406       .  A
C5150      C5151   1.417       .  A
C5150      H5155   1.082       .  S
C5151      C5152   1.408       .  A
C5151      O5156   1.370       .  S
C5152      C5153   1.408       .  A
C5153      C5154   1.397       .  A
C5153      H5157   1.081       .  S
C5154      O5158   1.372       .  S
O5156      H5160   0.992       .  S
O5158      H5159   0.992       .  S
C5161      C5162   1.410       .  A
C5161      C5166   1.408       .  A
C5162      C5163   1.417       .  A
C5162      H5167   1.084       .  S
C5163      C5164   1.414       .  A
C5163      O5168   1.370       .  S
C5164      C5165   1.406       .  A
C5165      C5166   1.393       .  A
C5165      H5169   1.082       .  S
C5166      O5170   1.372       .  S
O5168      H5172   0.991       .  S
O5170      H5171   0.992       .  S
C5173      C5174   1.412       .  A
C5173      C5178   1.398       .  A
C5174      C5175   1.406       .  A
C5174      H5179   1.081       .  S
C5175      C5176   1.402       .  A
C5175      O5180   1.371       .  S
C5176      C5177   1.412       .  A
C5177      C5178   1.399       .  A
C5177      H5181   1.079       .  S
C5178      O5182   1.372       .  S
O5180      H5184   0.992       .  S
O5182      H5183   0.991       .  S
C5185      C5186   1.392       .  A
C5185      C5190   1.422       .  A
C5186      C5187   1.398       .  A
C5186      H5191   1.084       .  S
C5187      C5188   1.425       .  A
C5187      O5192   1.370       .  S
C5188      C5189   1.398       .  A
C5189      C5190   1.404       .  A
C5189      H5193   1.083       .  S
C5190      O5194   1.372       .  S
O5192      H5196   0.990       .  S
O5194      H5195   0.992       .  S
C5197      C5198   1.398       .  A
C5197      C5202   1.431       .  A
C5198      C5199   1.406       .  A
C5198      H5203   1.083       .  S
C5199      C5200   1.420       .  A
C5199      O5204   1.372       .  S
C5200      C5201   1.390       .  A
C5201      C5202   1.401       .  A
C5201      H5205   1.084       .  S
C5202      O5206   1.372       .  S
O5204      H5208   0.992       .  S
O5206      H5207   0.992       .  S
C5209      C5210   1.408       .  A
C5209      C5214   1.405       .  A
C5210      C5211   1.410       .  A
C5210      H5215   1.084       .  S
C5211      C5212   1.406       .  A
C5211      O5216   1.371       .  S
C5212      C5213   1.412       .  A
C5213      C5214   1.403       .  A
C5213      H5217   1.084       .  S
C5214      O5218   1.372       .  S
O5216      H5220   0.991       .  S
O5218      H5219   0.992       .  S
C5221      C5222   1.406       .  A
C5221      C5226   1.412       .  A
C5222      C5223   1.409       .  A
C5222      H5227   1.081       .  S
C5223      C5224   1.408       .  A
C5223      O5228   1.370       .  S
C5224      C5225   1.406       .  A
C5225      C5226   1.404       .  A
C5225      H5229   1.085       .  S
C5226      O5230   1.374       .  S
O5228      H5232   0.992       .  S
O5230      H5231   0.992       .  S
C5233      C5234   1.411       .  A
C5233      C5238   1.403       .  A
C5234      C5235   1.415       .  A
C5234      H5239   1.083       .  S
C5235      C5236   1.406       .  A
C5235      O5240   1.374       .  S
C5236      C5237   1.410       .  A
C5237      C5238   1.398       .  A
C5237      H5241   1.082       .  S
C5238      O5242   1.372       .  S
O5240      H5244   0.992       .  S
O5242      H5243   0.992       .  S
C5245      C5246   1.413       .  A
C5245      C5250   1.403       .  A
C5246      C5247   1.416       .  A
C5246      H5251   1.082       .  S
C5247      C5248   1.412       .  A
C5247      O5252   1.371       .  S
C5248      C5249   1.403       .  A
C5249      C5250   1.392       .  A
C5249      H5253   1.076       .  S
C5250      O5254   1.371       .  S
O5252      H5256   0.992       .  S
O5254      H5255   0.991       .  S
C5257      C5258   1.396       .  A
C5257      C5262   1.418       .  A
C5258      C5259   1.403       .  A
C5258      H5263   1.083       .  S
C5259      C5260   1.416       .  A
C5259      O5264   1.371       .  S
C5260      C5261   1.384       .  A
C5261      C5262   1.392       .  A
C5261      H5265   1.085       .  S
C5262      O5266   1.371       .  S
O5264      H5268   0.992       .  S
O5266      H5267   0.992       .  S
C5269      C5270   1.391       .  A
C5269      C5274   1.415       .  A
C5270      C5271   1.394       .  A
C5270      H5275   1.084       .  S
C5271      C5272   1.412       .  A
C5271      O5276   1.371       .  S
C5272      C5273   1.393       .  A
C5273      C5274   1.395       .  A
C5273      H5277   1.084       .  S
C5274      O5278   1.373       .  S
O5276      H5280   0.992       .  S
O5278      H5279   0.990       .  S
