geometry optimzed in LAMMPS
_audit_creation_date              2020-11-30 
_audit_creation_method            'lammps2cif' 
_symmetry_space_group_name_H-M    'P1' 
_symmetry_Int_Tables_number       1 
_symmetry_cell_setting            triclinic 
loop_ 
_symmetry_equiv_pos_as_xyz 
  x,y,z 
_cell_length_a                    51.68533996 
_cell_length_b                    51.29082570454881 
_cell_length_c                    51.57770859645872 
_cell_angle_alpha                 89.709554133812 
_cell_angle_beta                  89.95691584353241 
_cell_angle_gamma                 89.75906530032044 
loop_ 
_atom_site_label 
_atom_site_type_symbol 
_atom_site_fract_x 
_atom_site_fract_y 
_atom_site_fract_z 
_atom_site_charge 
Zr1        Zr  0.48153612  0.78495898  0.73946364     2.17500
O2          O  0.47449767  0.73801876  0.74234369    -0.51600
O3          O  0.50513155  0.78275748  0.69798256    -0.74800
O4          O  0.45047856  0.76127082  0.71562180    -0.81600
O5          O  0.52294321  0.78254024  0.79083628    -0.83300
O6          O  0.41478964  0.78705592  0.71431011    -0.78900
O7          O  0.52169703  0.76590518  0.75134497    -0.90600
O8          O  0.50615192  0.82367325  0.68140546    -0.76500
O9          O  0.45736598  0.81578949  0.71533231    -0.86000
O10         O  0.51018539  0.82088374  0.73622639    -0.85700
O11         O  0.44332079  0.79184560  0.76570543    -0.72500
O12         O  0.48611800  0.80110431  0.78107689    -0.84600
Zr13       Zr  0.45543958  0.87527010  0.78216716     2.26400
Zr14       Zr  0.42037420  0.82466608  0.74174209     2.06300
Zr15       Zr  0.51731261  0.83242739  0.78075402     2.10000
Zr16       Zr  0.48471316  0.85231451  0.71271124     1.78800
O17         O  0.53890522  0.83976490  0.82200579    -0.93400
O18         O  0.45724265  0.85548330  0.67440768    -0.41200
O19         O  0.49195356  0.86277070  0.75694475    -0.77900
O20         O  0.44616527  0.86332076  0.73750146    -0.96600
O21         O  0.42863719  0.83819134  0.78488973    -0.89900
O22         O  0.48041796  0.84451739  0.80716220    -0.92700
C23         C  0.51144361  0.79918061  0.68011301     1.01100
C24         C  0.52466438  0.76232456  0.77532868     1.14000
C25         C  0.42779295  0.76677788  0.70788647     1.04800
O26         O  0.39758791  0.84972038  0.70851525    -0.94900
O27         O  0.39374642  0.84851579  0.77157043    -0.90600
O28         O  0.41153750  0.88819653  0.77148309    -0.83700
C29         C  0.39194508  0.87322964  0.77385314     1.11400
O30         O  0.45992830  0.76517321  0.82845359    -0.96800
Zr31       Zr  0.45172739  0.80779451  0.80916538     1.88900
O32         O  0.43733523  0.87673827  0.82627657    -0.73500
O33         O  0.37806324  0.80409233  0.74640902    -0.52700
O34         O  0.41262039  0.78297302  0.81833343    -0.97400
O35         O  0.47169193  0.81370098  0.85156492    -0.54600
O36         O  0.41952202  0.83695794  0.82994508    -0.74000
C37         C  0.41997697  0.86142396  0.83553767     0.98400
O38         O  0.45239272  0.92193331  0.79076908    -0.62800
O39         O  0.56196706  0.82730425  0.76662790    -0.57600
O40         O  0.49051014  0.90621489  0.77737647    -0.94300
O41         O  0.52694795  0.88159173  0.77183639    -0.92700
O42         O  0.52447869  0.87665182  0.70592515    -0.93100
O43         O  0.48144495  0.89636044  0.69514872    -0.91900
C44         C  0.51463095  0.90422378  0.77182366     1.17200
H45         H  0.52645714  0.81669612  0.72786283     0.33100
H46         H  0.43657650  0.87699677  0.72886076     0.44000
H47         H  0.48528930  0.85148761  0.82379609     0.37500
H48         H  0.43328151  0.77610020  0.76658476     0.34000
H49         H  0.46004064  0.83900095  0.66487900     0.25800
H50         H  0.37042610  0.80369406  0.72881137     0.31700
H51         H  0.40033675  0.78820399  0.80451067     0.37600
H52         H  0.53820177  0.86317766  0.70483584     0.32100
H53         H  0.56974375  0.84471089  0.76918457     0.31000
H54         H  0.53995767  0.85897597  0.82343353     0.32700
H55         H  0.48621505  0.80107423  0.85232749     0.31600
H56         H  0.46676569  0.90450941  0.70446001     0.35600
H57         H  0.44293090  0.92941802  0.77577502     0.28300
H58         H  0.49139002  0.72927534  0.73975728     0.32600
H59         H  0.45149209  0.75263440  0.81665125     0.35400
H60         H  0.57007318  0.81615974  0.78011087     0.28000
H61         H  0.44022890  0.92363264  0.80550771     0.40900
H62         H  0.38540999  0.86101187  0.71819389     0.31000
H63         H  0.43935676  0.85417472  0.68107851     0.38600
H64         H  0.45878678  0.80701967  0.86411838     0.30400
H65         H  0.38155768  0.78562412  0.75093619     0.30500
H66         H  0.46951859  0.73462824  0.76055089     0.30800
Zr67       Zr  0.53232047  0.13537211  0.78789087     2.17500
O68         O  0.56259495  0.17059038  0.77825227    -0.51600
O69         O  0.57277979  0.13846498  0.81349297    -0.74800
O70         O  0.51878343  0.16360036  0.82199233    -0.81600
O71         O  0.51549766  0.13270778  0.71741672    -0.83300
O72         O  0.50834358  0.13421874  0.85329778    -0.78900
O73         O  0.52243613  0.16198678  0.74981295    -0.90600
O74         O  0.58011839  0.09851213  0.83083637    -0.76500
O75         O  0.53543952  0.10394761  0.82142972    -0.86000
O76         O  0.55313513  0.09928937  0.76732320    -0.85700
O77         O  0.48802238  0.12726340  0.80212279    -0.72500
O78         O  0.50375546  0.11906563  0.75568878    -0.84600
Zr79       Zr  0.48436220  0.04431119  0.78311497     2.26400
Zr80       Zr  0.49263369  0.09422747  0.83488118     2.06300
Zr81       Zr  0.52380565  0.08430238  0.73391754     2.10000
Zr82       Zr  0.55676967  0.06834432  0.80234527     1.78800
O83         O  0.50482858  0.07233965  0.69243171    -0.93400
O84         O  0.56493225  0.03887421  0.83867410    -0.41200
O85         O  0.52763936  0.05457360  0.76934707    -0.77900
O86         O  0.51378038  0.05651957  0.81728352    -0.96600
O87         O  0.46359216  0.08093297  0.80155090    -0.89900
O88         O  0.48044382  0.07476741  0.74800495    -0.92700
C89         C  0.58431350  0.12326105  0.82984295     1.01100
C90         C  0.51627856  0.15704346  0.72623966     1.14000
C91         C  0.51508724  0.15696733  0.84553345     1.04800
O92         O  0.51142225  0.07076183  0.87151233    -0.94900
O93         O  0.45408338  0.06874762  0.84279083    -0.90600
O94         O  0.46423656  0.03091304  0.82337436    -0.83700
C95         C  0.44993409  0.04464234  0.83825438     1.11400
O96         O  0.44841425  0.15758162  0.76480061    -0.96800
Zr97       Zr  0.46004758  0.11160923  0.76781471     1.88900
O98         O  0.44044943  0.04075187  0.76666286    -0.73500
O99         O  0.46670960  0.11424590  0.86901162    -0.52700
O100        O  0.42347678  0.12164562  0.79591825    -0.97400
O101        O  0.44950103  0.12658382  0.72420994    -0.54600
O102        O  0.42646739  0.08091159  0.75424252    -0.74000
C103        C  0.42363307  0.05610354  0.75646186     0.98400
O104        O  0.48496015  0.99711204  0.78948105    -0.62800
O105        O  0.56297033  0.08929149  0.70796603    -0.57600
O106        O  0.49425027  0.01612448  0.74767920    -0.94300
O107        O  0.53225032  0.03354091  0.73622860    -0.92700
O108        O  0.60007703  0.07283852  0.78415981    -0.93100
O109        O  0.57624886  0.02706822  0.78943764    -0.91900
C110        C  0.51767370  0.01293953  0.74114726     1.17200
H111        H  0.56983492  0.10442117  0.76046736     0.33100
H112        H  0.51473983  0.04257477  0.83000017     0.44000
H113        H  0.47050905  0.06784607  0.73369510     0.37500
H114        H  0.47963455  0.14254167  0.80933573     0.34000
H115        H  0.58397672  0.03884796  0.84076351     0.25800
H116        H  0.44982079  0.11823665  0.86082684     0.31700
H117        H  0.43089351  0.12238037  0.81359269     0.37600
H118        H  0.61179148  0.06590789  0.79775282     0.32100
H119        H  0.55677010  0.09508360  0.69071455     0.31000
H120        H  0.51968766  0.06871813  0.68086926     0.32700
H121        H  0.43130504  0.12132895  0.72145320     0.31600
H122        H  0.57560192  0.02718632  0.77025018     0.35600
H123        H  0.49307012  0.99402451  0.80661809     0.28300
H124        H  0.56855087  0.16825287  0.76015665     0.32600
H125        H  0.46395811  0.16702999  0.77078143     0.35400
H126        H  0.57163062  0.10489686  0.71502256     0.28000
H127        H  0.46664724  0.99191050  0.79163389     0.40900
H128        H  0.52656334  0.08137716  0.87651464     0.31000
H129        H  0.55842799  0.04830395  0.85406935     0.38600
H130        H  0.45966797  0.11509175  0.71263901     0.30400
H131        H  0.46302416  0.10008552  0.88158360     0.30500
H132        H  0.55244766  0.18699296  0.77834264     0.30800
Zr133      Zr  0.52715767  0.27946322  0.75919894     2.17500
O134        O  0.52831566  0.23257718  0.75268871    -0.51600
O135        O  0.50157824  0.27426455  0.79914561    -0.74800
O136        O  0.55639678  0.25885905  0.78919703    -0.81600
O137        O  0.49010035  0.28655367  0.70658517    -0.83300
O138        O  0.59442168  0.26751271  0.77060211    -0.78900
O139        O  0.48705581  0.26417803  0.74322805    -0.90600
O140        O  0.50731226  0.31167232  0.82151414    -0.76500
O141        O  0.55387128  0.30507578  0.78579579    -0.86000
O142        O  0.50112007  0.31705790  0.76622769    -0.85700
O143        O  0.56509596  0.28619832  0.73209111    -0.72500
O144        O  0.52510491  0.30244312  0.72010370    -0.84600
Zr145      Zr  0.55973952  0.37310729  0.72869783     2.26400
Zr146      Zr  0.59112422  0.31309108  0.75953815     2.06300
Zr147      Zr  0.49533252  0.33481599  0.72327328     2.10000
Zr148      Zr  0.52874081  0.34270562  0.79328786     1.78800
O149        O  0.47580118  0.34840701  0.68240269    -0.93400
O150        O  0.55232093  0.33921234  0.83420567    -0.41200
O151        O  0.52138914  0.36058032  0.75127573    -0.77900
O152        O  0.56805963  0.35242004  0.77020460    -0.96600
O153        O  0.58491131  0.33544766  0.71948123    -0.89900
O154        O  0.53337425  0.34838001  0.69947521    -0.92700
C155        C  0.49876409  0.28836210  0.81950876     1.01100
C156        C  0.48672683  0.26416535  0.71883569     1.14000
C157        C  0.58088840  0.25639761  0.78808774     1.04800
O158        O  0.61195438  0.32107411  0.80101640    -0.94900
O159        O  0.62311167  0.34458607  0.74759575    -0.90600
O160        O  0.60164672  0.38303091  0.74755209    -0.83700
C161        C  0.62247898  0.36935021  0.74921917     1.11400
O162        O  0.54063439  0.27863454  0.66219015    -0.96800
Zr163      Zr  0.55935024  0.31028082  0.69193633     1.88900
O164        O  0.58301913  0.37880779  0.68745614    -0.73500
O165        O  0.63096209  0.29045641  0.74768044    -0.52700
O166        O  0.59350328  0.27853653  0.68334695    -0.97400
O167        O  0.54393792  0.32322043  0.64891879    -0.54600
O168        O  0.59536893  0.33817487  0.67597673    -0.74000
C169        C  0.59804625  0.36317303  0.67503466     0.98400
O170        O  0.56349762  0.42019520  0.72198802    -0.62800
O171        O  0.44948700  0.32994731  0.73339263    -0.57600
O172        O  0.52543784  0.40515333  0.73749320    -0.94300
O173        O  0.48702255  0.38354705  0.73486417    -0.92700
O174        O  0.48907017  0.36604495  0.80390754    -0.93100
O175        O  0.54181083  0.38374107  0.81253893    -0.91900
C176        C  0.50056609  0.40482752  0.73936552     1.17200
H177        H  0.48476470  0.31327416  0.77433420     0.33100
H178        H  0.57849861  0.36314915  0.78169962     0.44000
H179        H  0.52926098  0.35829810  0.68407814     0.37500
H180        H  0.57325793  0.26962570  0.72842426     0.34000
H181        H  0.53915572  0.34157495  0.84796760     0.25800
H182        H  0.64296552  0.29365338  0.76224807     0.31700
H183        H  0.60836470  0.28454359  0.69380708     0.37600
H184        H  0.48116143  0.37037937  0.78694762     0.32100
H185        H  0.44327536  0.31672070  0.72096878     0.31000
H186        H  0.47746230  0.36763307  0.68221942     0.32700
H187        H  0.55178441  0.34047255  0.64547213     0.31600
H188        H  0.53253106  0.38485075  0.82930213     0.35600
H189        H  0.58077596  0.42505163  0.72861558     0.28300
H190        H  0.52234776  0.22499281  0.76933175     0.32600
H191        H  0.55374476  0.26474477  0.65977771     0.35400
H192        H  0.44862116  0.32110990  0.75044810     0.28000
H193        H  0.56466962  0.42287768  0.70299973     0.40900
H194        H  0.60044152  0.31288057  0.81402024     0.31000
H195        H  0.55751552  0.32066481  0.83569188     0.38600
H196        H  0.52519394  0.32682916  0.65083644     0.30400
H197        H  0.63831871  0.30018842  0.73280023     0.30500
H198        H  0.54687190  0.22791423  0.75156402     0.30800
Zr199      Zr  0.52390601  0.53513680  0.72256956     2.17500
O200        O  0.52249928  0.48748378  0.72641086    -0.51600
O201        O  0.56693721  0.53027926  0.74244537    -0.74800
O202        O  0.54001153  0.51074278  0.68710327    -0.81600
O203        O  0.47259155  0.53503620  0.76370394    -0.83300
O204        O  0.54019940  0.53557515  0.65084436    -0.78900
O205        O  0.51104565  0.51647055  0.76229918    -0.90600
O206        O  0.58499464  0.57029583  0.74473943    -0.76500
O207        O  0.54778933  0.56455120  0.69685848    -0.86000
O208        O  0.53064219  0.57030636  0.75141971    -0.85700
O209        O  0.49537912  0.54434205  0.68669830    -0.72500
O210        O  0.48350720  0.55383637  0.72947019    -0.84600
Zr211      Zr  0.48628649  0.62968612  0.70144077     2.26400
Zr212      Zr  0.51903903  0.57595322  0.66211214     2.06300
Zr213      Zr  0.48713533  0.58390560  0.76157494     2.10000
Zr214      Zr  0.55451166  0.60024235  0.72467472     1.78800
O215        O  0.44760099  0.59307891  0.78557103    -0.93400
O216        O  0.59092550  0.59488606  0.69506856    -0.41200
O217        O  0.51209484  0.61400113  0.73656494    -0.77900
O218        O  0.52845409  0.61353592  0.68805271    -0.96600
O219        O  0.47812382  0.59418428  0.67330444    -0.89900
O220        O  0.46043566  0.60001447  0.72642565    -0.92700
C221        C  0.58540997  0.54562703  0.74889759     1.01100
C222        C  0.48694312  0.51387735  0.76407843     1.14000
C223        C  0.54566367  0.51471888  0.66349316     1.04800
O224        O  0.55425162  0.59603527  0.63791598    -0.94900
O225        O  0.49056725  0.60475140  0.63834574    -0.90600
O226        O  0.49513952  0.64372322  0.65707684    -0.83700
C227        C  0.49158208  0.62959293  0.63699076     1.11400
O228        O  0.42029358  0.53158456  0.69902619    -0.96800
Zr229      Zr  0.45414164  0.56441791  0.69715324     1.88900
O230        O  0.44194550  0.63619181  0.68576049    -0.73500
O231        O  0.50795652  0.55425459  0.62170657    -0.52700
O232        O  0.44874326  0.53614649  0.65963806    -0.97400
O233        O  0.41601812  0.56595545  0.72509486    -0.54600
O234        O  0.43426460  0.59713438  0.66766813    -0.74000
C235        C  0.43079360  0.62203341  0.66864772     0.98400
O236        O  0.48568248  0.67712488  0.69958543    -0.62800
O237        O  0.50282798  0.57423017  0.80516458    -0.57600
O238        O  0.49221643  0.65770662  0.73926381    -0.94300
O239        O  0.49665720  0.63152125  0.77487906    -0.92700
O240        O  0.57003800  0.62333407  0.76264557    -0.93100
O241        O  0.57074417  0.64425594  0.71777655    -0.91900
C242        C  0.49728912  0.65455589  0.76353908     1.17200
H243        H  0.53988866  0.56526659  0.76703853     0.33100
H244        H  0.53757715  0.62650383  0.67782396     0.44000
H245        H  0.44443171  0.60833669  0.73248305     0.37500
H246        H  0.49305813  0.52848690  0.67609069     0.34000
H247        H  0.58774137  0.60761467  0.68092225     0.25800
H248        H  0.48917393  0.55727028  0.61933028     0.31700
H249        H  0.44522333  0.54823141  0.64501903     0.37600
H250        H  0.55749773  0.61881277  0.77646028     0.32100
H251        H  0.48708421  0.56979598  0.81517168     0.31000
H252        H  0.44874862  0.61182230  0.78989901     0.32700
H253        H  0.40768806  0.58299100  0.72136114     0.31600
H254        H  0.55542691  0.65455216  0.71231792     0.35600
H255        H  0.50222498  0.68203827  0.69121593     0.28300
H256        H  0.54067007  0.48126558  0.72640362     0.32600
H257        H  0.40716432  0.53688925  0.68599838     0.35400
H258        H  0.51226545  0.55747026  0.80364343     0.28000
H259        H  0.47222467  0.68147211  0.68659847     0.40900
H260        H  0.54559825  0.60655714  0.62428414     0.31000
H261        H  0.60602008  0.60188811  0.70452965     0.38600
H262        H  0.42267518  0.56737777  0.74302242     0.30400
H263        H  0.51635603  0.56467668  0.60790259     0.30500
H264        H  0.51459192  0.48022531  0.71054076     0.30800
Zr265      Zr  0.96317309  0.28048686  0.01739965     2.17500
O266        O  0.00726452  0.29614643  0.01140574    -0.51600
O267        O  0.97006876  0.25932739  0.05905439    -0.74800
O268        O  0.97516871  0.31493165  0.04618527    -0.81600
O269        O  0.96982585  0.23151600  0.97190131    -0.83300
O270        O  0.94725718  0.34918088  0.04246371    -0.78900
O271        O  0.98874466  0.24276163  0.00928167    -0.90600
O272        O  0.93000755  0.25480740  0.07647786    -0.76500
O273        O  0.92879252  0.30113309  0.03939926    -0.86000
O274        O  0.93187459  0.24666167  0.02295177    -0.85700
O275        O  0.95085218  0.31583022  0.98908135    -0.72500
O276        O  0.95151213  0.26751213  0.97407638    -0.84600
Zr277      Zr  0.87179817  0.29132946  0.97360928     2.26400
Zr278      Zr  0.91535091  0.33570305  0.01138489     2.06300
Zr279      Zr  0.91951255  0.23465676  0.97992007     2.10000
Zr280      Zr  0.89732338  0.26880105  0.04427890     1.78800
O281        O  0.91241855  0.21077741  0.93991962    -0.93400
O282        O  0.89037921  0.29744465  0.08139171    -0.41200
O283        O  0.89102126  0.26128033  0.00068686    -0.77900
O284        O  0.88126831  0.30447630  0.01775275    -0.96600
O285        O  0.90408415  0.32308344  0.96908376    -0.89900
O286        O  0.90525588  0.26880076  0.95059272    -0.92700
C287        C  0.95486497  0.25244758  0.07748582     1.01100
C288        C  0.99076987  0.23466583  0.98624982     1.14000
C289        C  0.96646366  0.33730652  0.05286069     1.04800
O290        O  0.89547891  0.36360681  0.04391060    -0.94900
O291        O  0.87752646  0.35752638  0.99457623    -0.90600
O292        O  0.84595335  0.32785696  0.98742254    -0.83700
C293        C  0.85403454  0.35124559  0.98979287     1.11400
O294        O  0.97722658  0.28874009  0.92479275    -0.96800
Zr295      Zr  0.93739466  0.30239856  0.94619732     1.88900
O296        O  0.86839807  0.32046909  0.93520916    -0.73500
O297        O  0.93614740  0.37285268  0.99058743    -0.52700
O298        O  0.96905139  0.33641382  0.93745628    -0.97400
O299        O  0.92623096  0.28791275  0.90264670    -0.54600
O300        O  0.90849194  0.33596564  0.92734479    -0.74000
C301        C  0.88368963  0.33722215  0.92459856     0.98400
O302        O  0.83425155  0.27909891  0.94789329    -0.62800
O303        O  0.92689218  0.18999644  0.99462833    -0.57600
O304        O  0.84368494  0.25466263  0.98071621    -0.94300
O305        O  0.87154974  0.22129536  0.99016783    -0.92700
O306        O  0.87958629  0.22555218  0.05197088    -0.93100
O307        O  0.85422862  0.26761821  0.06338415    -0.91900
C308        C  0.84792427  0.23134430  0.98862849     1.17200
H309        H  0.93834109  0.23169713  0.03238070     0.33100
H310        H  0.86666106  0.31237463  0.02650603     0.44000
H311        H  0.89902356  0.26207721  0.93430714     0.37500
H312        H  0.96503166  0.32804624  0.98784037     0.34000
H313        H  0.89289390  0.28617709  0.09684041     0.25800
H314        H  0.92940984  0.37282407  0.97261823     0.31700
H315        H  0.95870508  0.35180177  0.93208956     0.37600
H316        H  0.89445102  0.21354271  0.04970866     0.32100
H317        H  0.94511208  0.18623999  0.98996865     0.31000
H318        H  0.89807185  0.19871687  0.94406585     0.32700
H319        H  0.93692720  0.27221038  0.89939971     0.31600
H320        H  0.84420316  0.28124892  0.05410602     0.35600
H321        H  0.82302590  0.29478394  0.94781452     0.28300
H322        H  0.01892953  0.28105770  0.01423437     0.32600
H323        H  0.97766264  0.26953331  0.92680723     0.35400
H324        H  0.92686189  0.19079123  0.01379369     0.28000
H325        H  0.84071322  0.27768653  0.92987033     0.40900
H326        H  0.88521372  0.35157286  0.05486076     0.31000
H327        H  0.90526335  0.30951812  0.08170565     0.38600
H328        H  0.93339308  0.30144978  0.89095268     0.30400
H329        H  0.92795803  0.38828825  0.99867820     0.30500
H330        H  0.00862653  0.30040150  0.99273407     0.30800
Zr331      Zr  0.71949704  0.26913435  0.97895445     2.17500
O332        O  0.76665629  0.26856713  0.97547957    -0.51600
O333        O  0.72030427  0.31088449  0.00180431    -0.74800
O334        O  0.74310605  0.29560496  0.94854454    -0.81600
O335        O  0.72001548  0.21251424  0.01578527    -0.83300
O336        O  0.71628883  0.30229266  0.91435987    -0.78900
O337        O  0.73808439  0.25160790  0.01779551    -0.90600
O338        O  0.68065299  0.32971215  0.99909368    -0.76500
O339        O  0.68872897  0.29531364  0.95721046    -0.86000
O340        O  0.68336785  0.26986839  0.00768587    -0.85700
O341        O  0.71297626  0.24605831  0.93893578    -0.72500
O342        O  0.70225227  0.22738905  0.97957280    -0.84600
Zr343      Zr  0.62886253  0.22955665  0.94932980     2.26400
Zr344      Zr  0.68093377  0.27239858  0.91797678     2.06300
Zr345      Zr  0.67113224  0.22453229  0.01094498     2.10000
Zr346      Zr  0.65192947  0.29548949  0.98434771     1.78800
O347        O  0.66343397  0.18085378  0.02788295    -0.93400
O348        O  0.64058192  0.33428283  0.95928277    -0.41200
O349        O  0.64027261  0.25092346  0.98868152    -0.77900
O350        O  0.64214702  0.27443099  0.94371617    -0.96600
O351        O  0.66539207  0.22886647  0.92168124    -0.89900
O352        O  0.65925652  0.20199940  0.97164770    -0.92700
C353        C  0.70469207  0.33017606  0.00506067     1.01100
C354        C  0.74065089  0.22710568  0.01860566     1.14000
C355        C  0.73691249  0.30674387  0.92722257     1.04800
O356        O  0.66363258  0.31086546  0.89604560    -0.94900
O357        O  0.65240308  0.25956044  0.88453361    -0.90600
O358        O  0.61878421  0.23890162  0.90389640    -0.83700
C359        C  0.63089282  0.24763126  0.88382951     1.11400
O360        O  0.73727462  0.18012088  0.94484869    -0.96800
Zr361      Zr  0.69566199  0.20239826  0.94283382     1.88900
O362        O  0.62535566  0.18615951  0.93001693    -0.73500
O363        O  0.70707457  0.25937163  0.88079703    -0.52700
O364        O  0.71894048  0.20177743  0.90167258    -0.97400
O365        O  0.69726483  0.15888856  0.96198845    -0.54600
O366        O  0.66508286  0.18110089  0.91250800    -0.74000
C367        C  0.64063098  0.17613685  0.91307769     0.98400
O368        O  0.58199980  0.23295780  0.94489053    -0.62800
O369        O  0.67609804  0.23409535  0.05686005    -0.57600
O370        O  0.59801982  0.22445630  0.98495906    -0.94300
O371        O  0.62215539  0.22940276  0.02159514    -0.92700
O372        O  0.63685661  0.30205124  0.02858377    -0.93100
O373        O  0.60614051  0.30625875  0.98761694    -0.91900
C374        C  0.59967440  0.22805687  0.00956192     1.17200
H375        H  0.68757063  0.27723491  0.02429106     0.33100
H376        H  0.62890199  0.28413699  0.93459707     0.44000
H377        H  0.65232312  0.18463146  0.97495547     0.37500
H378        H  0.72887525  0.24578500  0.92921103     0.34000
H379        H  0.64063871  0.34872856  0.97194251     0.25800
H380        H  0.72535993  0.26128949  0.88609599     0.31700
H381        H  0.71304476  0.18577267  0.89284559     0.37600
H382        H  0.63147066  0.28451030  0.03454006     0.32100
H383        H  0.69362922  0.24164135  0.05838314     0.31000
H384        H  0.68089046  0.17300733  0.02955555     0.32700
H385        H  0.68133751  0.15020326  0.95586805     0.31600
H386        H  0.59725715  0.29162727  0.97894298     0.35600
H387        H  0.57880497  0.25094966  0.93857706     0.28300
H388        H  0.77391906  0.27112275  0.99302786     0.32600
H389        H  0.75006321  0.19325818  0.93908178     0.35400
H390        H  0.66419464  0.24892790  0.05998941     0.28000
H391        H  0.57751648  0.22163985  0.93007337     0.40900
H392        H  0.67157277  0.31055451  0.87857067     0.31000
H393        H  0.65584328  0.33758712  0.94814314     0.38600
H394        H  0.69446791  0.16154218  0.98078262     0.30400
H395        H  0.70433212  0.27336256  0.86782841     0.30500
H396        H  0.77140150  0.25062397  0.97043126     0.30800
Zr397      Zr  0.38007801  0.19042150  0.01653342     2.17500
O398        O  0.33335572  0.18429084  0.01919058    -0.51600
O399        O  0.37762107  0.17200627  0.06025996    -0.74800
O400        O  0.37056104  0.14525800  0.00484008    -0.81600
O401        O  0.37196167  0.26381119  0.01595237    -0.83300
O402        O  0.40901477  0.12572076  0.99716525    -0.78900
O403        O  0.34862750  0.22612999  0.01684597    -0.90600
O404        O  0.41686802  0.15310351  0.06348268    -0.76500
O405        O  0.41752305  0.16373782  0.01852309    -0.86000
O406        O  0.40915633  0.21437750  0.04372995    -0.85700
O407        O  0.39367250  0.18412202  0.97205427    -0.72500
O408        O  0.39093436  0.22997374  0.99471128    -0.84600
Zr409      Zr  0.47022033  0.22035756  0.97710035     2.26400
Zr410      Zr  0.43286440  0.15863922  0.97519956     2.06300
Zr411      Zr  0.42117423  0.25338321  0.02040745     2.10000
Zr412      Zr  0.44627120  0.18632608  0.04491839     1.78800
O413        O  0.42691999  0.29912640  0.00907138    -0.93400
O414        O  0.47559938  0.15000566  0.05349330    -0.41200
O415        O  0.45230301  0.22213098  0.01831329    -0.77900
O416        O  0.46425815  0.18034589  0.00175401    -0.96600
O417        O  0.43963964  0.19824160  0.95152574    -0.89900
O418        O  0.43381464  0.24916460  0.97543399    -0.92700
C419        C  0.39262365  0.15418349  0.06931249     1.01100
C420        C  0.34978804  0.25113402  0.01519109     1.14000
C421        C  0.38520055  0.12491630  0.00333997     1.04800
O422        O  0.46330475  0.12250071  0.97930270    -0.94900
O423        O  0.46387407  0.16100949  0.94035534    -0.90600
O424        O  0.49420680  0.18353558  0.96085646    -0.83700
C425        C  0.48589361  0.17220700  0.94076835     1.11400
O426        O  0.35715902  0.22417343  0.93838707    -0.96800
Zr427      Zr  0.40267263  0.22523280  0.95049195     1.88900
O428        O  0.47145962  0.24007814  0.93390565    -0.73500
O429        O  0.41033288  0.13349732  0.94228561    -0.52700
O430        O  0.39446977  0.20114990  0.91076520    -0.97400
O431        O  0.38324277  0.26832977  0.94557908    -0.54600
O432        O  0.43117272  0.24321393  0.91727760    -0.74000
C433        C  0.45575494  0.24646066  0.91570633     0.98400
O434        O  0.51617650  0.22955597  0.97138079    -0.62800
O435        O  0.41348041  0.27169409  0.06320765    -0.57600
O436        O  0.48939426  0.25816564  0.99535961    -0.94300
O437        O  0.47027788  0.25487500  0.03358670    -0.92700
O438        O  0.43892347  0.20358572  0.08833981    -0.93100
O439        O  0.48554547  0.19813499  0.06799644    -0.91900
C440        C  0.49153557  0.25716365  0.01965864     1.17200
H441        H  0.40162065  0.21812925  0.06053614     0.33100
H442        H  0.48004774  0.17018608  0.00322068     0.44000
H443        H  0.43803527  0.26576441  0.96766053     0.37500
H444        H  0.38067498  0.17468890  0.96256882     0.34000
H445        H  0.46949375  0.14252292  0.07013044     0.25800
H446        H  0.41355901  0.14299583  0.92585430     0.31700
H447        H  0.40954557  0.18934147  0.90887616     0.37600
H448        H  0.42690867  0.19118864  0.09678589     0.32100
H449        H  0.42905526  0.26686447  0.07334533     0.31000
H450        H  0.44579669  0.30102757  0.00643235     0.32700
H451        H  0.39560512  0.27826798  0.93474033     0.31600
H452        H  0.48455516  0.21729647  0.07004583     0.35600
H453        H  0.52572200  0.21422791  0.97806376     0.28300
H454        H  0.33091333  0.16906247  0.03080345     0.32600
H455        H  0.34911191  0.21198943  0.95094263     0.35400
H456        H  0.41483920  0.29079014  0.06072001     0.28000
H457        H  0.51892679  0.22870100  0.95245193     0.40900
H458        H  0.46328088  0.11805940  0.99799272     0.31000
H459        H  0.47103901  0.13673959  0.04043003     0.38600
H460        H  0.38461841  0.27628770  0.96296863     0.30400
H461        H  0.42062017  0.11726678  0.94066367     0.30500
H462        H  0.32815234  0.17806983  0.00181635     0.30800
Zr463      Zr  0.21552268  0.22348997  0.03913296     2.17500
O464        O  0.26231820  0.21696631  0.03694947    -0.51600
O465        O  0.21805663  0.17859017  0.02353882    -0.74800
O466        O  0.23534597  0.21519110  0.08059959    -0.81600
O467        O  0.21966499  0.27173041  0.99086059    -0.83300
O468        O  0.20356983  0.19748208  0.10393805    -0.78900
O469        O  0.23890796  0.23391667  0.00043868    -0.90600
O470        O  0.17817333  0.16173814  0.01731733    -0.76500
O471        O  0.18264129  0.20117058  0.06218611    -0.86000
O472        O  0.18191615  0.21784722  0.00802807    -0.85700
O473        O  0.20431588  0.25351360  0.07376462    -0.72500
O474        O  0.20312210  0.26693401  0.02606226    -0.84600
Zr475      Zr  0.12348976  0.26711122  0.05300507     2.26400
Zr476      Zr  0.17053241  0.23043647  0.09637987     2.06300
Zr477      Zr  0.17012631  0.26134668  0.99450064     2.10000
Zr478      Zr  0.14878425  0.19568716  0.03222042     1.78800
O479        O  0.16309130  0.30103357  0.96932040    -0.93400
O480        O  0.14441613  0.16016141  0.06344841    -0.41200
O481        O  0.13836153  0.23901153  0.01946241    -0.77900
O482        O  0.13482948  0.22353207  0.06744358    -0.96600
O483        O  0.15788313  0.27278561  0.08238149    -0.89900
O484        O  0.15534539  0.29043199  0.02843186    -0.92700
C485        C  0.20289668  0.16031075  0.01605223     1.01100
C486        C  0.24078760  0.25744816  0.99336558     1.14000
C487        C  0.22674077  0.19728973  0.09517779     1.04800
O488        O  0.14490374  0.19939428  0.12140386    -0.94900
O489        O  0.14039904  0.25739822  0.12036524    -0.90600
O490        O  0.10475935  0.26124936  0.09551348    -0.83700
C491        C  0.11663798  0.26398723  0.11700088     1.11400
O492        O  0.23392627  0.31149501  0.05529665    -0.96800
Zr493      Zr  0.18962446  0.29602316  0.05948478     1.88900
O494        O  0.12122551  0.31194649  0.06968511    -0.73500
O495        O  0.19386873  0.24069458  0.13601419    -0.52700
O496        O  0.21058890  0.31119324  0.09884962    -0.97400
O497        O  0.18868504  0.33564182  0.03300397    -0.54600
O498        O  0.16011879  0.32042399  0.08726480    -0.74000
C499        C  0.13560893  0.32392977  0.08622669     0.98400
O500        O  0.07635566  0.27051042  0.05150263    -0.62800
O501        O  0.17743857  0.24354708  0.95143181    -0.57600
O502        O  0.09576510  0.26496700  0.01525011    -0.94300
O503        O  0.12229172  0.25290170  0.98203524    -0.92700
O504        O  0.13136610  0.18089352  0.99101954    -0.93100
O505        O  0.10350057  0.18275213  0.03161137    -0.91900
C506        C  0.09915955  0.25604350  0.99233187     1.17200
H507        H  0.18769690  0.20787857  0.99328247     0.33100
H508        H  0.12051510  0.21568573  0.07649992     0.44000
H509        H  0.14820623  0.30653986  0.02159639     0.37500
H510        H  0.21867414  0.25687814  0.08548764     0.34000
H511        H  0.12892318  0.16459469  0.07385649     0.25800
H512        H  0.19080836  0.25955726  0.13868758     0.31700
H513        H  0.20252841  0.30089918  0.11296948     0.37600
H514        H  0.14359812  0.18759649  0.97781979     0.32100
H515        H  0.16575130  0.25371478  0.93998290     0.31000
H516        H  0.18065330  0.30819337  0.96661744     0.32700
H517        H  0.17137798  0.34348933  0.03580022     0.31600
H518        H  0.09439197  0.19587808  0.04230748     0.35600
H519        H  0.06977640  0.25476311  0.06050187     0.28300
H520        H  0.26540010  0.19886141  0.04300343     0.32600
H521        H  0.23294316  0.33073906  0.05644087     0.35400
H522        H  0.19502848  0.24945234  0.94665134     0.28000
H523        H  0.07184125  0.28518694  0.06308413     0.40900
H524        H  0.12755364  0.20742633  0.12321772     0.31000
H525        H  0.13913032  0.14494928  0.05299133     0.38600
H526        H  0.18864110  0.32963444  0.01479111     0.30400
H527        H  0.18381687  0.23207180  0.14995259     0.30500
H528        H  0.26999504  0.22813316  0.05047184     0.30800
Zr529      Zr  0.77801026  0.46600745  0.88871737     2.17500
O530        O  0.77929595  0.45796934  0.93551122    -0.51600
O531        O  0.82188784  0.44622223  0.89399802    -0.74800
O532        O  0.76524999  0.42355513  0.90379143    -0.81600
O533        O  0.76345722  0.53801480  0.89131742    -0.83300
O534        O  0.77639817  0.40565541  0.86644943    -0.78900
O535        O  0.77445966  0.50370180  0.91719911    -0.90600
O536        O  0.83121392  0.43059979  0.85420212    -0.76500
O537        O  0.78751014  0.43819308  0.85338991    -0.86000
O538        O  0.80267474  0.49228204  0.85923392    -0.85700
O539        O  0.73604440  0.45233222  0.87211318    -0.72500
O540        O  0.75012806  0.50035281  0.87332912    -0.84600
Zr541      Zr  0.74127537  0.48311563  0.79312402     2.26400
Zr542      Zr  0.74716424  0.42500811  0.83595771     2.06300
Zr543      Zr  0.77430052  0.52646581  0.84319010     2.10000
Zr544      Zr  0.81215471  0.46273102  0.82444880     1.78800
O545        O  0.75784374  0.57068927  0.83758239    -0.93400
O546        O  0.82808247  0.42862217  0.79567952    -0.41200
O547        O  0.78324600  0.49612035  0.80942611    -0.77900
O548        O  0.77150340  0.44901138  0.80456293    -0.96600
O549        O  0.71801549  0.45855988  0.82348519    -0.89900
O550        O  0.73271659  0.51330783  0.82709531    -0.92700
C551        C  0.83380235  0.43000798  0.87897519     1.01100
C552        C  0.76571129  0.52694691  0.91440603     1.14000
C553        C  0.77034981  0.40351270  0.89023379     1.04800
O554        O  0.75852044  0.38289136  0.81750484    -0.94900
O555        O  0.72468742  0.41296160  0.79682425    -0.90600
O556        O  0.71444865  0.44986898  0.77494898    -0.83700
C557        C  0.71214775  0.42549434  0.77924891     1.11400
O558        O  0.68597895  0.48100108  0.89795335    -0.96800
Zr559      Zr  0.70865912  0.48766079  0.85720164     1.88900
O560        O  0.69887957  0.50242936  0.78507822    -0.73500
O561        O  0.71297033  0.40101103  0.85803167    -0.52700
O562        O  0.67261055  0.45709986  0.85686830    -0.97400
O563        O  0.69579508  0.52953176  0.87523859    -0.54600
O564        O  0.67843982  0.50332453  0.82396950    -0.74000
C565        C  0.67913498  0.50740904  0.79935559     0.98400
O566        O  0.75223701  0.47587466  0.74778402    -0.62800
O567        O  0.81412119  0.55036617  0.85111681    -0.57600
O568        O  0.74668044  0.52515512  0.77584960    -0.94300
O569        O  0.78517210  0.53141414  0.79325790    -0.92700
O570        O  0.85109123  0.48567444  0.83821291    -0.93100
O571        O  0.84185091  0.47696803  0.79078130    -0.91900
C572        C  0.77018108  0.53045947  0.77260512     1.17200
H573        H  0.81766763  0.49924448  0.86802199     0.33100
H574        H  0.77473774  0.43820515  0.78967965     0.44000
H575        H  0.72310430  0.52844646  0.82136458     0.37500
H576        H  0.72648701  0.44265302  0.88496954     0.34000
H577        H  0.82137308  0.41220113  0.80323604     0.25800
H578        H  0.69782606  0.40275579  0.84639557     0.31700
H579        H  0.66901825  0.45361645  0.83835401     0.37600
H580        H  0.86110205  0.47279705  0.84850712     0.32100
H581        H  0.82787299  0.53956998  0.84312372     0.31000
H582        H  0.76137995  0.57931072  0.85433502     0.32700
H583        H  0.68578874  0.53829977  0.86133016     0.31600
H584        H  0.84130776  0.49624897  0.79164483     0.35600
H585        H  0.75559115  0.45692675  0.74624994     0.28300
H586        H  0.79331400  0.46872341  0.94289565     0.32600
H587        H  0.66915681  0.49011745  0.89598771     0.35400
H588        H  0.81287709  0.56588406  0.83968436     0.28000
H589        H  0.73597580  0.47893946  0.73806862     0.40900
H590        H  0.77605572  0.38546578  0.81021049     0.31000
H591        H  0.81850101  0.43077216  0.77920368     0.38600
H592        H  0.71203455  0.53962204  0.87634265     0.30400
H593        H  0.71813155  0.38246592  0.85662593     0.30500
H594        H  0.76295001  0.46488798  0.94284122     0.30800
Zr595      Zr  0.74253541  0.55727549  0.39021438     2.17500
O596        O  0.74902078  0.56003022  0.43677542    -0.51600
O597        O  0.69789211  0.57305703  0.39314085    -0.74800
O598        O  0.74170281  0.60390621  0.40149054    -0.81600
O599        O  0.75122255  0.48582616  0.39256040    -0.83300
O600        O  0.75747848  0.62538846  0.36641707    -0.78900
O601        O  0.73731838  0.51899867  0.41831192    -0.90600
O602        O  0.69414965  0.59355686  0.35455400    -0.76500
O603        O  0.74111285  0.58622115  0.35465755    -0.86000
O604        O  0.71824537  0.53448715  0.35773936    -0.85700
O605        O  0.78722250  0.56669941  0.37919894    -0.72500
O606        O  0.76749623  0.52049843  0.37667499    -0.84600
Zr607      Zr  0.78735175  0.53739513  0.29922558     2.26400
Zr608      Zr  0.78428807  0.59567857  0.34239692     2.06300
Zr609      Zr  0.74439039  0.49805956  0.34384409     2.10000
Zr610      Zr  0.71709788  0.56546844  0.32289388     1.78800
O611        O  0.75694388  0.45311346  0.33539260    -0.93400
O612        O  0.71052958  0.60625457  0.29924491    -0.41200
O613        O  0.74563406  0.53159060  0.31486006    -0.77900
O614        O  0.76046854  0.57538277  0.30786915    -0.96600
O615        O  0.81064065  0.55832692  0.33258982    -0.89900
O616        O  0.78920985  0.50557238  0.33302915    -0.92700
C617        C  0.68793675  0.59095533  0.37869188     1.01100
C618        C  0.74666434  0.49586254  0.41567520     1.14000
C619        C  0.74510929  0.62480932  0.38794786     1.04800
O620        O  0.77964268  0.63409981  0.31483066    -0.94900
O621        O  0.81908493  0.59813889  0.31149306    -0.90600
O622        O  0.80046699  0.57731515  0.27870812    -0.83700
C623        C  0.81925798  0.58973749  0.28822218     1.11400
O624        O  0.82741572  0.52785504  0.41159346    -0.96800
Zr625      Zr  0.81177598  0.52794226  0.36703953     1.88900
O626        O  0.83178158  0.51986886  0.29839296    -0.73500
O627        O  0.81426985  0.62201642  0.36763624    -0.52700
O628        O  0.85110003  0.55313576  0.37325287    -0.97400
O629        O  0.81606516  0.48508657  0.38719601    -0.54600
O630        O  0.84428943  0.50812873  0.33881421    -0.74000
C631        C  0.84793586  0.50918705  0.31421872     0.98400
O632        O  0.79457371  0.53289482  0.25262251    -0.62800
O633        O  0.70240099  0.47769425  0.35043104    -0.57600
O634        O  0.77220570  0.50081235  0.27535532    -0.94300
O635        O  0.73355183  0.49786684  0.29409558    -0.92700
O636        O  0.67482397  0.54462678  0.32462529    -0.93100
O637        O  0.69622502  0.55903825  0.28111457    -0.91900
C638        C  0.74802429  0.49850027  0.27304179     1.17200
H639        H  0.70130861  0.52932590  0.36393629     0.33100
H640        H  0.75876907  0.58697097  0.29314152     0.44000
H641        H  0.79769982  0.48973030  0.32769313     0.37500
H642        H  0.79551073  0.57535177  0.39373646     0.34000
H643        H  0.69304332  0.61224501  0.30441340     0.25800
H644        H  0.81125474  0.61731028  0.38602180     0.31700
H645        H  0.84496478  0.57099926  0.37711770     0.37600
H646        H  0.66289668  0.55840054  0.33084293     0.32100
H647        H  0.70460954  0.45962954  0.34410989     0.31000
H648        H  0.76954656  0.44884574  0.34923927     0.32700
H649        H  0.83299560  0.47835884  0.38115508     0.31600
H650        H  0.69497845  0.53989070  0.27910856     0.35600
H651        H  0.78519785  0.54746598  0.24413504     0.28300
H652        H  0.73817743  0.57483947  0.44258502     0.32600
H653        H  0.82065737  0.54415233  0.41931509     0.35400
H654        H  0.70086274  0.47583372  0.36948869     0.28000
H655        H  0.81313017  0.53682669  0.24991435     0.40900
H656        H  0.79334660  0.64610381  0.32077387     0.31000
H657        H  0.72241420  0.61875255  0.30760802     0.38600
H658        H  0.80317280  0.47413758  0.37822724     0.30400
H659        H  0.83164519  0.61495517  0.36357613     0.30500
H660        H  0.76706840  0.56617648  0.43841054     0.30800
Zr661      Zr  0.70396978  0.48299128  0.63289215     2.17500
O662        O  0.70007779  0.47481257  0.67921066    -0.51600
O663        O  0.69155229  0.43676039  0.63571686    -0.74800
O664        O  0.65809160  0.48898564  0.64263205    -0.81600
O665        O  0.77418517  0.50310252  0.64190612    -0.83300
O666        O  0.64375806  0.48118456  0.60261455    -0.78900
O667        O  0.73652371  0.49731451  0.66426728    -0.90600
O668        O  0.67704090  0.42829581  0.59554673    -0.76500
O669        O  0.68042956  0.47295691  0.59494700    -0.86000
O670        O  0.73422037  0.45986309  0.60594956    -0.85700
O671        O  0.68851644  0.52465375  0.61630686    -0.72500
O672        O  0.73713601  0.51258326  0.62030341    -0.84600
Zr673      Zr  0.72760366  0.52295886  0.54046451     2.26400
Zr674      Zr  0.66605677  0.51322026  0.57717603     2.06300
Zr675      Zr  0.76726434  0.49057006  0.59328364     2.10000
Zr676      Zr  0.70903842  0.45076910  0.56790477     1.78800
O677        O  0.81034799  0.50908741  0.58868968    -0.93400
O678        O  0.67646242  0.43401002  0.53832664    -0.41200
O679        O  0.73832659  0.48386561  0.56063187    -0.77900
O680        O  0.69421496  0.49083378  0.54734638    -0.96600
O681        O  0.69884276  0.54490517  0.56820205    -0.89900
O682        O  0.75356743  0.53264153  0.57736287    -0.92700
C683        C  0.67641110  0.42448624  0.62020521     1.01100
C684        C  0.76038411  0.50442479  0.66347992     1.14000
C685        C  0.63970821  0.48377420  0.62680594     1.04800
O686        O  0.62843638  0.50151008  0.55145832    -0.94900
O687        O  0.65790864  0.54198117  0.54132068    -0.90600
O688        O  0.69012397  0.53193442  0.51372138    -0.83700
C689        C  0.67009834  0.54498741  0.52002070     1.11400
O690        O  0.70678637  0.57456290  0.64456645    -0.96800
Zr691      Zr  0.72335698  0.55437305  0.60536756     1.88900
O692        O  0.74248281  0.56771081  0.53736400    -0.73500
O693        O  0.63657018  0.54300094  0.59922519    -0.52700
O694        O  0.69329328  0.59023135  0.59749039    -0.97400
O695        O  0.75951562  0.56823786  0.63224541    -0.54600
O696        O  0.74367753  0.58627247  0.57693985    -0.74000
C697        C  0.74811462  0.58655215  0.55246640     0.98400
O698        O  0.73636381  0.52626764  0.49398247    -0.62800
O699        O  0.79201508  0.45181647  0.60521979    -0.57600
O700        O  0.77014109  0.51486518  0.52499404    -0.94300
O701        O  0.77529498  0.47704272  0.54488141    -0.92700
O702        O  0.73539456  0.41278853  0.57919043    -0.93100
O703        O  0.72583502  0.42683017  0.53082507    -0.91900
C704        C  0.77547640  0.49102447  0.52342267     1.17200
H705        H  0.74115365  0.44465753  0.61475973     0.33100
H706        H  0.68527931  0.48678402  0.53142083     0.44000
H707        H  0.76859481  0.54296894  0.57327984     0.37500
H708        H  0.67700863  0.53284458  0.62858479     0.34000
H709        H  0.67447845  0.41545563  0.54332248     0.25800
H710        H  0.63625182  0.55879434  0.58811853     0.31700
H711        H  0.67598078  0.58280366  0.60093951     0.37600
H712        H  0.72470611  0.40270154  0.59158926     0.32100
H713        H  0.80535454  0.45023262  0.59152389     0.31000
H714        H  0.81419739  0.50794207  0.56992162     0.32700
H715        H  0.76737025  0.58305262  0.62276841     0.31600
H716        H  0.74488718  0.42849415  0.53193135     0.35600
H717        H  0.73263535  0.54465556  0.48934189     0.28300
H718        H  0.68765932  0.46022553  0.68042095     0.32600
H719        H  0.71296698  0.59280908  0.64391735     0.35400
H720        H  0.80173489  0.45696744  0.62090332     0.28000
H721        H  0.72297052  0.51613119  0.48485052     0.40900
H722        H  0.63564862  0.49391568  0.53537472     0.31000
H723        H  0.66012124  0.44235910  0.54402114     0.38600
H724        H  0.77246854  0.55406272  0.63079605     0.30400
H725        H  0.61921632  0.53532200  0.59690622     0.30500
H726        H  0.69043148  0.49005924  0.68598858     0.30800
Zr727      Zr  0.77384779  0.48524813  0.04180032     2.17500
O728        O  0.77166843  0.48433657  0.99445206    -0.51600
O729        O  0.75151731  0.44288012  0.03920009    -0.74800
O730        O  0.80514875  0.46362994  0.01494623    -0.81600
O731        O  0.74558810  0.54685392  0.04472784    -0.83300
O732        O  0.82682696  0.44129735  0.04569486    -0.78900
O733        O  0.73775226  0.50931025  0.02545568    -0.90600
O734        O  0.74912827  0.42370599  0.07868023    -0.76500
O735        O  0.79191891  0.45535093  0.07157654    -0.86000
O736        O  0.74500013  0.48615264  0.07786221    -0.85700
O737        O  0.81606002  0.50388961  0.04887305    -0.72500
O738        O  0.77809764  0.52594021  0.06109680    -0.84600
Zr739      Zr  0.80697872  0.51579742  0.13429698     2.26400
Zr740      Zr  0.83353867  0.47334643  0.07921735     2.06300
Zr741      Zr  0.74728441  0.53091586  0.09266390     2.10000
Zr742      Zr  0.76470803  0.45641742  0.10833939     1.78800
O743        O  0.73261782  0.57514982  0.10154921    -0.93400
O744        O  0.78415222  0.41466651  0.12027511    -0.41200
O745        O  0.76507485  0.50029613  0.12278818    -0.77900
O746        O  0.80740832  0.47188372  0.11784295    -0.96600
O747        O  0.83535719  0.51608154  0.09794489    -0.89900
O748        O  0.78881215  0.54795554  0.10587103    -0.92700
C749        C  0.74589193  0.42344809  0.05412108     1.01100
C750        C  0.74097090  0.53365269  0.02357666     1.14000
C751        C  0.81765093  0.44371740  0.02274031     1.04800
O752        O  0.85773510  0.43441879  0.09160473    -0.94900
O753        O  0.86640045  0.47943828  0.11069692    -0.90600
O754        O  0.84736193  0.49600887  0.14694197    -0.83700
C755        C  0.86659348  0.48685892  0.13421852     1.11400
O756        O  0.83039718  0.58270327  0.04158396    -0.96800
Zr757      Zr  0.81716068  0.54644234  0.06934546     1.88900
O758        O  0.83656310  0.55176675  0.14163089    -0.73500
O759        O  0.86831245  0.48287178  0.04874760    -0.52700
O760        O  0.85048356  0.54322676  0.03589277    -0.97400
O761        O  0.79207441  0.58668789  0.06545288    -0.54600
O762        O  0.84953872  0.56252794  0.10118891    -0.74000
C763        C  0.85212874  0.56342161  0.12610970     0.98400
O764        O  0.80610197  0.50521189  0.18041137    -0.62800
O765        O  0.70073997  0.52578589  0.08740856    -0.57600
O766        O  0.77505561  0.53399575  0.16380255    -0.94300
O767        O  0.73812473  0.52541963  0.14199065    -0.92700
O768        O  0.71950779  0.45488801  0.12172096    -0.93100
O769        O  0.76382600  0.44458906  0.15412915    -0.91900
C770        C  0.75092876  0.52845731  0.16384397     1.17200
H771        H  0.72772091  0.48093917  0.07300588     0.33100
H772        H  0.81531144  0.46023901  0.13042320     0.44000
H773        H  0.78768001  0.56493654  0.11395751     0.37500
H774        H  0.82567568  0.50370192  0.03286311     0.34000
H775        H  0.76971471  0.40205496  0.12049165     0.25800
H776        H  0.87983982  0.49490774  0.05819577     0.31700
H777        H  0.86700032  0.54238784  0.04558578     0.37600
H778        H  0.71016857  0.44760189  0.10667299     0.32100
H779        H  0.69838493  0.52105738  0.06897431     0.31000
H780        H  0.73502091  0.57721546  0.12047029     0.32700
H781        H  0.79754834  0.59752239  0.08030020     0.31600
H782        H  0.74926037  0.43226932  0.15618096     0.35600
H783        H  0.80872969  0.48609779  0.18135500     0.28300
H784        H  0.75328952  0.48251921  0.98941791     0.32600
H785        H  0.84306369  0.59257952  0.05204320     0.35400
H786        H  0.69650910  0.50969931  0.09719533     0.28000
H787        H  0.82208873  0.51279085  0.18771727     0.40900
H788        H  0.84598952  0.42483418  0.10341760     0.31000
H789        H  0.79475392  0.40966705  0.10507773     0.38600
H790        H  0.77396640  0.58192632  0.06937824     0.30400
H791        H  0.87828555  0.46639444  0.04759032     0.30500
H792        H  0.77707129  0.50173719  0.98826876     0.30800
Zr793      Zr  0.29915082  0.97409166  0.87847334     2.17500
O794        O  0.29924804  0.96609194  0.83181925    -0.51600
O795        O  0.32168629  0.93203150  0.87158024    -0.74800
O796        O  0.33897527  0.99386903  0.86419814    -0.81600
O797        O  0.22629496  0.98322078  0.87380457    -0.83300
O798        O  0.36112898  0.98643701  0.90067326    -0.78900
O799        O  0.26290229  0.98126031  0.84912919    -0.90600
O800        O  0.33248838  0.91801211  0.91172196    -0.76500
O801        O  0.32738939  0.96616427  0.91407579    -0.86000
O802        O  0.27446461  0.94659347  0.90679110    -0.85700
O803        O  0.30883414  0.01715572  0.89579670    -0.72500
O804        O  0.26260975  0.99852149  0.89341376    -0.84600
Zr805      Zr  0.27577850  0.00830384  0.97313660     2.26400
Zr806      Zr  0.33551881  0.00797004  0.93310853     2.06300
Zr807      Zr  0.23797531  0.97221870  0.92233025     2.10000
Zr808      Zr  0.30329651  0.93994681  0.94253034     1.78800
O809        O  0.19311760  0.98501525  0.92957594    -0.93400
O810        O  0.34187054  0.93150925  0.96865906    -0.41200
O811        O  0.27001060  0.96857398  0.95270903    -0.77900
O812        O  0.31251189  0.98095577  0.96354742    -0.96600
O813        O  0.29942684  0.03482424  0.94430917    -0.89900
O814        O  0.24616911  0.01542125  0.93852989    -0.92700
C815        C  0.33485294  0.91719133  0.88691691     1.01100
C816        C  0.23842140  0.98519469  0.85120757     1.14000
C817        C  0.35997855  0.99394514  0.87716429     1.04800
O818        O  0.38104410  0.00823086  0.94531238    -0.94900
O819        O  0.34460533  0.01715481  0.97821605    -0.90600
O820        O  0.30780886  0.03456598  0.99354596    -0.83700
C821        C  0.33233390  0.03275086  0.99320068     1.11400
O822        O  0.26670806  0.06233888  0.86673734    -0.96800
Zr823      Zr  0.27099392  0.04132864  0.90894462     1.88900
O824        O  0.25539980  0.05088571  0.97930800    -0.73500
O825        O  0.34993093  0.05091252  0.91890143    -0.52700
O826        O  0.30039402  0.07756418  0.90113100    -0.97400
O827        O  0.22834638  0.04975696  0.89060310    -0.54600
O828        O  0.25725831  0.07307578  0.94127839    -0.74000
C829        C  0.25194244  0.07154988  0.96552497     0.98400
O830        O  0.27928325  0.99774940  0.01911446    -0.62800
O831        O  0.21801751  0.93057883  0.91227691    -0.57600
O832        O  0.23542364  0.99725881  0.99132677    -0.94300
O833        O  0.23214570  0.95906537  0.97153934    -0.92700
O834        O  0.27327185  0.90361682  0.93862583    -0.93100
O835        O  0.30096816  0.90694217  0.97669019    -0.91900
C836        C  0.23129253  0.97311659  0.99289152     1.17200
H837        H  0.26936979  0.93081859  0.89813023     0.33100
H838        H  0.32201996  0.97728494  0.97925914     0.44000
H839        H  0.23038471  0.02409222  0.94408688     0.37500
H840        H  0.31778635  0.02842378  0.88366439     0.34000
H841        H  0.34959500  0.91540876  0.96141762     0.25800
H842        H  0.35002874  0.06149747  0.93490655     0.31700
H843        H  0.28991757  0.09345104  0.90422598     0.37600
H844        H  0.28224699  0.89102234  0.92719047     0.32100
H845        H  0.21865360  0.92065323  0.92877995     0.31000
H846        H  0.19215103  0.00353318  0.92416137     0.32700
H847        H  0.22096152  0.06388980  0.90135759     0.31600
H848        H  0.30983914  0.89123169  0.96988586     0.35600
H849        H  0.27405785  0.01398934  0.02799908     0.28300
H850        H  0.29811573  0.94693608  0.82982034     0.32600
H851        H  0.28115753  0.05519146  0.85630488     0.35400
H852        H  0.19945915  0.93472627  0.90977713     0.28000
H853        H  0.29797219  0.99571906  0.02283904     0.40900
H854        H  0.38519298  0.98979184  0.94937406     0.31000
H855        H  0.35417071  0.94534342  0.96347662     0.38600
H856        H  0.21801023  0.03418777  0.89513628     0.30400
H857        H  0.36843471  0.04865244  0.91444638     0.30500
H858        H  0.31686779  0.97050892  0.82574271     0.30800
Zr859      Zr  0.21967775  0.98625089  0.47736560     2.17500
O860        O  0.22220788  0.99297928  0.52407578    -0.51600
O861        O  0.23915663  0.94295219  0.48151226    -0.74800
O862        O  0.18878246  0.96219578  0.50121363    -0.81600
O863        O  0.26590915  0.03090473  0.47124502    -0.83300
O864        O  0.15183593  0.98303978  0.49133406    -0.78900
O865        O  0.26275670  0.99245093  0.49015350    -0.90600
O866        O  0.23213428  0.92191097  0.44373222    -0.76500
O867        O  0.18882321  0.96343484  0.45280431    -0.86000
O868        O  0.24339714  0.97545638  0.43943441    -0.85700
O869        O  0.18542448  0.01825963  0.47224613    -0.72500
O870        O  0.22755023  0.02574190  0.45641921    -0.84600
Zr871      Zr  0.19043996  0.02338610  0.38627747     2.26400
Zr872      Zr  0.15543888  0.99492988  0.44550128     2.06300
Zr873      Zr  0.25544129  0.01760695  0.42307936     2.10000
Zr874      Zr  0.21130385  0.95310183  0.41447012     1.78800
O875        O  0.28055101  0.05511885  0.40892252    -0.93400
O876        O  0.17845376  0.92026160  0.42361363    -0.41200
O877        O  0.22488558  0.99417374  0.39727459    -0.77900
O878        O  0.17568904  0.98265565  0.40509662    -0.96600
O879        O  0.16737763  0.03463205  0.42435305    -0.89900
O880        O  0.22114715  0.04756574  0.41119226    -0.92700
C881        C  0.24091943  0.92277376  0.46701092     1.01100
C882        C  0.26763701  0.01629083  0.49222309     1.14000
C883        C  0.16483767  0.96626321  0.50455514     1.04800
O884        O  0.13152709  0.95638414  0.43247933    -0.94900
O885        O  0.12614104  0.02116252  0.41968392    -0.90600
O886        O  0.14377071  0.01888520  0.37966136    -0.83700
C887        C  0.12463132  0.02353267  0.39503190     1.11400
O888        O  0.20910815  0.08891771  0.48258284    -0.96800
Zr889      Zr  0.19656679  0.05810008  0.44917345     1.88900
O890        O  0.18228162  0.07003858  0.38113966    -0.73500
O891        O  0.11285962  0.00340260  0.46404296    -0.52700
O892        O  0.16179961  0.06928664  0.47911886    -0.97400
O893        O  0.22386019  0.09591606  0.44037180    -0.54600
O894        O  0.16541574  0.08078348  0.41955616    -0.74000
C895        C  0.16621777  0.08340666  0.39467736     0.98400
O896        O  0.17910046  0.03452558  0.34160945    -0.62800
O897        O  0.29900854  0.99957001  0.42721577    -0.57600
O898        O  0.22293262  0.00910578  0.35422091    -0.94300
O899        O  0.26214143  0.00698062  0.37425074    -0.92700
O900        O  0.24556148  0.93565482  0.38710741    -0.93100
O901        O  0.19911437  0.93070377  0.37487519    -0.91900
C902        C  0.24751881  0.00457574  0.35345576     1.17200
H903        H  0.25865488  0.96510521  0.44256066     0.33100
H904        H  0.16333051  0.97432201  0.39383330     0.44000
H905        H  0.22756835  0.06232305  0.40176427     0.37500
H906        H  0.17801586  0.02247433  0.48886049     0.34000
H907        H  0.16452202  0.92333645  0.41078992     0.25800
H908        H  0.10673943  0.98654331  0.47113050     0.31700
H909        H  0.14636177  0.06045906  0.47202167     0.37600
H910        H  0.26087513  0.94640412  0.39121518     0.32100
H911        H  0.30984774  0.01463085  0.43211890     0.31000
H912        H  0.28132453  0.06654935  0.42430117     0.32700
H913        H  0.21839276  0.10248615  0.42313485     0.31600
H914        H  0.18358035  0.94001543  0.36839839     0.35600
H915        H  0.17723446  0.01784694  0.33230783     0.28300
H916        H  0.22597164  0.97563761  0.53176187     0.32600
H917        H  0.19697669  0.10387442  0.48118845     0.35400
H918        H  0.29857927  0.98857245  0.44303363     0.28000
H919        H  0.19444913  0.04307071  0.33388622     0.40900
H920        H  0.11737270  0.96321947  0.42141024     0.31000
H921        H  0.18636988  0.90346226  0.41842946     0.38600
H922        H  0.24154930  0.08895125  0.43776911     0.30400
H923        H  0.11571539  0.01465423  0.47931107     0.30500
H924        H  0.20459803  0.99755120  0.53014886     0.30800
Zr925      Zr  0.24217067  0.94229027  0.63093512     2.17500
O926        O  0.24470384  0.93079487  0.58504294    -0.51600
O927        O  0.19887665  0.92417063  0.62289199    -0.74800
O928        O  0.25499196  0.89738506  0.62152127    -0.81600
O929        O  0.24839237  0.01610912  0.62397873    -0.83300
O930        O  0.25456097  0.87813842  0.66072919    -0.78900
O931        O  0.24909479  0.97848845  0.60071898    -0.90600
O932        O  0.18468738  0.91132906  0.66243220    -0.76500
O933        O  0.23482439  0.91594221  0.66786344    -0.86000
O934        O  0.21297546  0.96733746  0.65754147    -0.85700
O935        O  0.28463001  0.93456031  0.64910156    -0.72500
O936        O  0.26455750  0.98042448  0.64498986    -0.84600
Zr937      Zr  0.27328527  0.97065068  0.72531499     2.26400
Zr938      Zr  0.27609981  0.90919311  0.68726706     2.06300
Zr939      Zr  0.23657394  0.00535864  0.67224113     2.10000
Zr940      Zr  0.20691568  0.93959381  0.69456948     1.78800
O941        O  0.24697989  0.05129360  0.67750434    -0.93400
O942        O  0.20011212  0.89778269  0.71618217    -0.41200
O943        O  0.23377530  0.97437023  0.70402415    -0.77900
O944        O  0.24807833  0.93242938  0.71596754    -0.96600
O945        O  0.30110816  0.94657308  0.69832166    -0.89900
O946        O  0.27953824  0.99930159  0.68947198    -0.92700
C947        C  0.18407848  0.91015496  0.63741348     1.01100
C948        C  0.25194221  0.00330010  0.60205776     1.14000
C949        C  0.25265235  0.87718906  0.63615448     1.04800
O950        O  0.27196374  0.86641905  0.70698062    -0.94900
O951        O  0.29349031  0.90025646  0.72971896    -0.90600
O952        O  0.29324785  0.93823271  0.75185795    -0.83700
C953        C  0.29886981  0.91414277  0.74949582     1.11400
O954        O  0.33111776  0.96753592  0.62191235    -0.96800
Zr955      Zr  0.30700124  0.97388215  0.66189746     1.88900
O956        O  0.31441669  0.99325949  0.73293311    -0.73500
O957        O  0.31550345  0.89146256  0.66826220    -0.52700
O958        O  0.34552844  0.94655033  0.66560434    -0.97400
O959        O  0.31549218  0.01470556  0.63902335    -0.54600
O960        O  0.33373369  0.99604575  0.69375039    -0.74000
C961        C  0.33310884  0.00061999  0.71822268     0.98400
O962        O  0.26726749  0.96442555  0.77179153    -0.62800
O963        O  0.19468452  0.02389174  0.66042422    -0.57600
O964        O  0.25927978  0.01153054  0.74126881    -0.94300
O965        O  0.22168466  0.01103841  0.72092763    -0.92700
O966        O  0.16765196  0.96597272  0.69168360    -0.93100
O967        O  0.18248598  0.94257104  0.73494499    -0.91900
C968        C  0.23506251  0.01344675  0.74255720     1.17200
H969        H  0.19702425  0.97168166  0.64867394     0.33100
H970        H  0.24532057  0.92248105  0.73169493     0.44000
H971        H  0.28701579  0.01587643  0.69432548     0.37500
H972        H  0.29522186  0.92493676  0.63684400     0.34000
H973        H  0.18242137  0.89242525  0.71121782     0.25800
H974        H  0.32824255  0.89164301  0.68258764     0.31700
H975        H  0.35965734  0.95851463  0.67053673     0.37600
H976        H  0.17212146  0.98257302  0.70028127     0.32100
H977        H  0.18526018  0.02549128  0.67706077     0.31000
H978        H  0.24621867  0.05865209  0.65973576     0.32700
H979        H  0.33298297  0.01997333  0.64474226     0.31600
H980        H  0.16573326  0.93393165  0.73153870     0.35600
H981        H  0.24950477  0.95767897  0.77383626     0.28300
H982        H  0.23333083  0.94294872  0.57534627     0.32600
H983        H  0.34777698  0.97668200  0.62434212     0.35400
H984        H  0.19842037  0.04209475  0.65521846     0.28000
H985        H  0.26754992  0.98176377  0.78005711     0.40900
H986        H  0.25540416  0.86710349  0.71662923     0.31000
H987        H  0.21157438  0.88549162  0.70684354     0.38600
H988        H  0.30372163  0.02756679  0.64715518     0.30400
H989        H  0.31168422  0.87276613  0.66559594     0.30500
H990        H  0.26249590  0.93511863  0.57944126     0.30800
Zr991      Zr  0.28124876  0.04019394  0.12136328     2.17500
O992        O  0.30254112  0.02810986  0.08088109    -0.51600
O993        O  0.32591139  0.05570316  0.11302473    -0.74800
O994        O  0.27171143  0.07962354  0.09755116    -0.81600
O995        O  0.25481562  0.97164404  0.12515080    -0.83300
O996        O  0.28768546  0.10050767  0.13086969    -0.78900
O997        O  0.26134371  0.00530938  0.09684187    -0.90600
O998        O  0.33937061  0.07166712  0.15147108    -0.76500
O999        O  0.29600165  0.07017644  0.15271182    -0.86000
O1000       O  0.30138676  0.01337600  0.15389436    -0.85700
O1001       O  0.24296692  0.06413086  0.13637462    -0.72500
O1002       O  0.24830420  0.01344235  0.14065796    -0.84600
Zr1003     Zr  0.24696435  0.04247158  0.21860000     2.26400
Zr1004     Zr  0.25995428  0.09411173  0.16789305     2.06300
Zr1005     Zr  0.26771658  0.98616531  0.17263484     2.10000
Zr1006     Zr  0.31700054  0.04514881  0.18421817     1.78800
O1007       O  0.24438787  0.94529906  0.17740139    -0.93400
O1008       O  0.33947225  0.07583656  0.21211309    -0.41200
O1009       O  0.28336462  0.01866037  0.20148136    -0.77900
O1010       O  0.28085474  0.07023956  0.20199760    -0.96600
O1011       O  0.22693029  0.06706606  0.18567794    -0.89900
O1012       O  0.23135801  0.01003325  0.18909368    -0.92700
C1013       C  0.34046725  0.07079830  0.12653689     1.01100
C1014       C  0.25373869  0.98199010  0.10145959     1.14000
C1015       C  0.27773018  0.10102140  0.10839680     1.04800
O1016       O  0.28365318  0.13135663  0.18452329    -0.94900
O1017       O  0.23295647  0.11214586  0.20125432    -0.90600
O1018       O  0.24237553  0.08636050  0.23543354    -0.83700
C1019       C  0.22987055  0.10512542  0.22483206     1.11400
O1020       O  0.18754479  0.04506243  0.11645693    -0.96800
Zr1021     Zr  0.21104275  0.03609654  0.15633363     1.88900
O1022       O  0.20270652  0.02603273  0.22804492    -0.73500
O1023       O  0.23301387  0.12566498  0.14487843    -0.52700
O1024       O  0.18012510  0.07173641  0.16145167    -0.97400
O1025       O  0.19162388  0.99650816  0.13949030    -0.54600
O1026       O  0.18057448  0.02449478  0.19020207    -0.74000
C1027       C  0.18196004  0.02136408  0.21479963     0.98400
O1028       O  0.24029481  0.04510154  0.26538385    -0.62800
O1029       O  0.30598428  0.95820491  0.17248872    -0.57600
O1030       O  0.27862413  0.01545917  0.23861101    -0.94300
O1031       O  0.26589728  0.97724324  0.22323041    -0.92700
O1032       O  0.35361022  0.01838921  0.17064118    -0.93100
O1033       O  0.33859072  0.02531987  0.22136662    -0.91900
C1034       C  0.27260347  0.99202865  0.24301842     1.17200
H1035       H  0.31497204  0.00309008  0.14617573     0.33100
H1036       H  0.28704024  0.08195261  0.21522835     0.44000
H1037       H  0.22041187  0.99694665  0.19652585     0.37500
H1038       H  0.23397991  0.07361093  0.12267674     0.34000
H1039       H  0.35803309  0.07328514  0.20802157     0.25800
H1040       H  0.21510167  0.11938063  0.14742528     0.31700
H1041       H  0.16293166  0.06339696  0.16281829     0.37600
H1042       H  0.36902120  0.02916313  0.17430000     0.32100
H1043       H  0.31969304  0.96887833  0.18055108     0.31000
H1044       H  0.25484809  0.93243656  0.16765375     0.32700
H1045       H  0.17352673  0.99682044  0.14575883     0.31600
H1046       H  0.33335883  0.00677680  0.22092255     0.35600
H1047       H  0.23378233  0.02780202  0.27078467     0.28300
H1048       H  0.30674550  0.00928290  0.08206208     0.32600
H1049       H  0.16935809  0.04025333  0.12007821     0.35400
H1050       H  0.30221389  0.94462778  0.18565740     0.28000
H1051       H  0.25778009  0.04635038  0.27309275     0.40900
H1052       H  0.30069436  0.13042509  0.17578448     0.31000
H1053       H  0.33524945  0.09321362  0.20476848     0.38600
H1054       H  0.19992096  0.98218893  0.14943472     0.30400
H1055       H  0.23401843  0.14177173  0.15532262     0.30500
H1056       H  0.28929346  0.02976409  0.06714278     0.30800
Zr1057     Zr  0.99782584  0.88084435  0.30916414     2.17500
O1058       O  0.99673867  0.83375732  0.31577509    -0.51600
O1059       O  0.95356157  0.87345805  0.32511388    -0.74800
O1060       O  0.00938600  0.87271242  0.35446412    -0.81600
O1061       O  0.00583705  0.87199950  0.23604699    -0.83300
O1062       O  0.00608975  0.91204880  0.37329688    -0.78900
O1063       O  0.00555404  0.84957034  0.27431493    -0.90600
O1064       O  0.94161956  0.91282620  0.34031726    -0.76500
O1065       O  0.98887049  0.91793656  0.33484298    -0.86000
O1066       O  0.97028393  0.90705419  0.28207712    -0.85700
O1067       O  0.03966234  0.89902819  0.31962080    -0.72500
O1068       O  0.02280659  0.89388004  0.27226339    -0.84600
Zr1069     Zr  0.03012765  0.97497454  0.28203813     2.26400
Zr1070     Zr  0.02968113  0.93790032  0.34344835     2.06300
Zr1071     Zr  0.99634811  0.92107742  0.24555185     2.10000
Zr1072     Zr  0.96199762  0.94399270  0.30913859     1.78800
O1073       O  0.01333785  0.92563433  0.20172035    -0.93400
O1074       O  0.94890106  0.96996823  0.34647926    -0.41200
O1075       O  0.99121025  0.95299156  0.27605459    -0.77900
O1076       O  0.00224036  0.96627796  0.31847174    -0.96600
O1077       O  0.05716102  0.94837953  0.30774486    -0.89900
O1078       O  0.03873533  0.93867392  0.25465779    -0.92700
C1079       C  0.93979423  0.88771194  0.34033365     1.01100
C1080       C  0.00857904  0.85020462  0.24952385     1.14000
C1081       C  0.00535257  0.88734537  0.37427268     1.04800
O1082       O  0.03040448  0.95494693  0.38745749    -0.94900
O1083       O  0.03855081  0.98252388  0.35388164    -0.90600
O1084       O  0.04230879  0.00445247  0.31615319    -0.83700
C1085       C  0.04352543  0.00311204  0.34079199     1.11400
O1086       O  0.07981101  0.86593755  0.28221638    -0.96800
Zr1087     Zr  0.06467748  0.91095567  0.28176236     1.88900
O1088       O  0.07422315  0.98122509  0.26672184    -0.73500
O1089       O  0.07056437  0.91988885  0.35911676    -0.52700
O1090       O  0.10119049  0.90542186  0.31109787    -0.97400
O1091       O  0.07937514  0.89451775  0.23999233    -0.54600
O1092       O  0.09664605  0.94328968  0.26810753    -0.74000
C1093       C  0.09492939  0.96783618  0.26342945     0.98400
O1094       O  0.02621744  0.02155005  0.27278841    -0.62800
O1095       O  0.95691714  0.91024995  0.22217978    -0.57600
O1096       O  0.01946000  0.98747170  0.23904960    -0.94300
O1097       O  0.98116957  0.96914808  0.23742979    -0.92700
O1098       O  0.92211461  0.93435066  0.28583140    -0.93100
O1099       O  0.93650512  0.98211149  0.29667326    -0.91900
C1100       C  0.99553423  0.99008667  0.23557273     1.17200
H1101       H  0.95494785  0.89773754  0.27691362     0.33100
H1102       H  0.99810028  0.98221044  0.32752990     0.44000
H1103       H  0.04771002  0.94371824  0.23909275     0.37500
H1104       H  0.04974412  0.88643955  0.33027445     0.34000
H1105       H  0.95947123  0.96306878  0.36099943     0.25800
H1106       H  0.06597259  0.90999831  0.37499305     0.31700
H1107       H  0.11650333  0.90412631  0.29962008     0.37600
H1108       H  0.91402424  0.91988393  0.29564619     0.32100
H1109       H  0.94268845  0.91705547  0.23311710     0.31000
H1110       H  0.01729605  0.94441640  0.19982109     0.32700
H1111       H  0.08045163  0.91004983  0.22858041     0.31600
H1112       H  0.93525677  0.98134887  0.27753592     0.35600
H1113       H  0.01794184  0.03031801  0.28771159     0.28300
H1114       H  0.01417150  0.82917716  0.32237076     0.32600
H1115       H  0.06983172  0.85744777  0.29628663     0.35400
H1116       H  0.95704739  0.92189649  0.20681184     0.28000
H1117       H  0.04404972  0.02843060  0.27176770     0.40900
H1118       H  0.04790188  0.95122077  0.39435650     0.31000
H1119       H  0.95568123  0.98773345  0.34336328     0.38600
H1120       H  0.06449277  0.88456327  0.23318875     0.30400
H1121       H  0.08052447  0.93506316  0.36535177     0.30500
H1122       H  0.98506007  0.83095352  0.33074712     0.30800
Zr1123     Zr  0.99939217  0.47032591  0.23582287     2.17500
O1124       O  0.01029425  0.51566674  0.22761703    -0.51600
O1125       O  0.96016583  0.47807698  0.26098248    -0.74800
O1126       O  0.96596179  0.48772011  0.20798261    -0.81600
O1127       O  0.05437234  0.46664997  0.27230528    -0.83300
O1128       O  0.98162388  0.47524879  0.16982103    -0.78900
O1129       O  0.01728311  0.48888730  0.27374342    -0.90600
O1130       O  0.93905800  0.43947198  0.26353189    -0.76500
O1131       O  0.97003349  0.44105557  0.21674595    -0.86000
O1132       O  0.99627249  0.43558900  0.26669086    -0.85700
O1133       O  0.02077935  0.45963413  0.19566962    -0.72500
O1134       O  0.03849634  0.44791777  0.23690310    -0.84600
Zr1135     Zr  0.02805081  0.37443090  0.20874029     2.26400
Zr1136     Zr  0.99035192  0.42966446  0.17698307     2.06300
Zr1137     Zr  0.03929921  0.41782728  0.26958157     2.10000
Zr1138     Zr  0.96724491  0.40581999  0.24625310     1.78800
O1139       O  0.08208163  0.40911563  0.28742206    -0.93400
O1140       O  0.92485069  0.39876765  0.22679721    -0.41200
O1141       O  0.01002582  0.38897398  0.24895284    -0.77900
O1142       O  0.98464373  0.39248045  0.20498307    -0.96600
O1143       O  0.03259427  0.41047746  0.17981538    -0.89900
O1144       O  0.05904420  0.40212883  0.22982802    -0.92700
C1145       C  0.94060994  0.46409594  0.26745940     1.01100
C1146       C  0.04170624  0.48893731  0.27431160     1.14000
C1147       C  0.96414184  0.48597092  0.18340484     1.04800
O1148       O  0.94693912  0.41337090  0.16862578    -0.94900
O1149       O  0.01088876  0.39773850  0.15050050    -0.90600
O1150       O  0.00336169  0.36058259  0.17115451    -0.83700
C1151       C  0.00240623  0.37450303  0.15054754     1.11400
O1152       O  0.08597622  0.47911700  0.20271911    -0.96800
Zr1153     Zr  0.06234890  0.43816705  0.20024169     1.88900
O1154       O  0.06559452  0.36709741  0.18088480    -0.73500
O1155       O  0.97902298  0.44468696  0.13350919    -0.52700
O1156       O  0.06764220  0.46136862  0.15927938    -0.97400
O1157       O  0.10569472  0.43286416  0.21853445    -0.54600
O1158       O  0.08123977  0.40667901  0.16953200    -0.74000
C1159       C  0.07989961  0.38179890  0.16674211     0.98400
O1160       O  0.03961891  0.32882502  0.20098132    -0.62800
O1161       O  0.02819447  0.42454406  0.31497938    -0.57600
O1162       O  0.02508589  0.34478712  0.24574248    -0.94300
O1163       O  0.03119226  0.36889620  0.28221104    -0.92700
O1164       O  0.96278307  0.39214190  0.29128451    -0.93100
O1165       O  0.95196805  0.36119148  0.25072843    -0.91900
C1166       C  0.02644762  0.34649711  0.27050412     1.17200
H1167       H  0.98997860  0.44142707  0.28338901     0.33100
H1168       H  0.97251537  0.38025862  0.19779620     0.44000
H1169       H  0.07515687  0.39307804  0.23283398     0.37500
H1170       H  0.02369662  0.47524874  0.18547860     0.34000
H1171       H  0.92016916  0.41568790  0.21871774     0.25800
H1172       H  0.99544341  0.44440620  0.12362448     0.31700
H1173       H  0.05864292  0.45042578  0.14637659     0.37600
H1174       H  0.98006678  0.38527829  0.29608924     0.32100
H1175       H  0.02864697  0.40687075  0.32277995     0.31000
H1176       H  0.08577598  0.39078487  0.28270488     0.32700
H1177       H  0.11144582  0.41517486  0.21345247     0.31600
H1178       H  0.96234310  0.35112285  0.23807724     0.35600
H1179       H  0.02424233  0.31828718  0.20548661     0.28300
H1180       H  0.99848410  0.52552978  0.23908796     0.32600
H1181       H  0.09391938  0.47952512  0.22016970     0.35400
H1182       H  0.04339822  0.43349444  0.32240706     0.28000
H1183       H  0.05315758  0.32387867  0.21369507     0.40900
H1184       H  0.94950714  0.39796171  0.15741383     0.31000
H1185       H  0.92794018  0.38700710  0.21194830     0.38600
H1186       H  0.10318639  0.43189530  0.23754986     0.30400
H1187       H  0.96825610  0.43084193  0.12580822     0.30500
H1188       H  0.00427686  0.51959073  0.20980630     0.30800
Zr1189     Zr  0.97471366  0.61779662  0.22781121     2.17500
O1190       O  0.97755383  0.57415524  0.20932867    -0.51600
O1191       O  0.95463284  0.60986732  0.18542403    -0.74800
O1192       O  0.93747220  0.59524951  0.24458317    -0.81600
O1193       O  0.04625397  0.62048910  0.24471037    -0.83300
O1194       O  0.91276537  0.62845579  0.23209991    -0.78900
O1195       O  0.01250797  0.59233219  0.24039650    -0.90600
O1196       O  0.93834591  0.64821664  0.17101150    -0.76500
O1197       O  0.94367092  0.65001778  0.21643558    -0.86000
O1198       O  0.99867974  0.64972331  0.20359334    -0.85700
O1199       O  0.95689612  0.63339911  0.26871598    -0.72500
O1200       O  0.00641926  0.63613853  0.25602199    -0.84600
Zr1201     Zr  0.98040206  0.71392854  0.26290284     2.26400
Zr1202     Zr  0.92642205  0.66650069  0.25563550     2.06300
Zr1203     Zr  0.03053262  0.66815347  0.23295997     2.10000
Zr1204     Zr  0.96609554  0.68136467  0.19226717     1.78800
O1205       O  0.07348476  0.67712285  0.24998717    -0.93400
O1206       O  0.92950442  0.70657485  0.17576009    -0.41200
O1207       O  0.99747771  0.69911814  0.22190339    -0.77900
O1208       O  0.94862205  0.69969777  0.23199312    -0.96600
O1209       O  0.95799656  0.68124763  0.28569758    -0.89900
O1210       O  0.01325950  0.68289548  0.27364227    -0.92700
C1211       C  0.93858357  0.62303773  0.17141164     1.01100
C1212       C  0.03626274  0.59668146  0.24590448     1.14000
C1213       C  0.91525860  0.60562506  0.24158314     1.04800
O1214       O  0.88990197  0.68798331  0.23459462    -0.94900
O1215       O  0.91270098  0.70092118  0.28437055    -0.90600
O1216       O  0.94300239  0.73267949  0.28289842    -0.83700
C1217       C  0.92169367  0.72314199  0.29099674     1.11400
O1218       O  0.99169406  0.60535293  0.31256192    -0.96800
Zr1219     Zr  0.98986416  0.65010054  0.29669266     1.88900
O1220       O  0.99206284  0.72233897  0.30808818    -0.73500
O1221       O  0.89402730  0.64606843  0.28333788    -0.52700
O1222       O  0.95979660  0.64382121  0.33253223    -0.97400
O1223       O  0.03218388  0.63743103  0.31340618    -0.54600
O1224       O  0.99692354  0.68360808  0.32889124    -0.74000
C1225       C  0.99705650  0.70857404  0.32844384     0.98400
O1226       O  0.97256884  0.75837531  0.24782764    -0.62800
O1227       O  0.05360253  0.66110196  0.19235370    -0.57600
O1228       O  0.01997233  0.73688163  0.26196179    -0.94300
O1229       O  0.03562380  0.71901768  0.22574489    -0.92700
O1230       O  0.99244727  0.67353675  0.15387503    -0.93100
O1231       O  0.97569868  0.72100973  0.16800755    -0.91900
C1232       C  0.03087432  0.73970205  0.24025492     1.17200
H1233       H  0.00662617  0.64170538  0.18862636     0.33100
H1234       H  0.93696397  0.71388483  0.22805872     0.44000
H1235       H  0.02676495  0.69031990  0.28421157     0.37500
H1236       H  0.94824358  0.61994053  0.27946860     0.34000
H1237       H  0.92647751  0.69974980  0.15809779     0.25800
H1238       H  0.89310892  0.65688033  0.29914186     0.31700
H1239       H  0.94269665  0.64895552  0.32547614     0.37600
H1240       H  0.98149993  0.66265916  0.14253075     0.32100
H1241       H  0.06782071  0.67397480  0.19244309     0.31000
H1242       H  0.08541974  0.66715426  0.23871063     0.32700
H1243       H  0.03961626  0.65365827  0.32049726     0.31600
H1244       H  0.97624351  0.73486647  0.18128765     0.35600
H1245       H  0.95425236  0.75906059  0.24225730     0.28300
H1246       H  0.99496997  0.57216375  0.20155353     0.32600
H1247       H  0.98848914  0.59453225  0.29705430     0.35400
H1248       H  0.06230125  0.64401048  0.19466223     0.28000
H1249       H  0.97339327  0.76941033  0.26350650     0.40900
H1250       H  0.88383484  0.67526724  0.22158712     0.31000
H1251       H  0.91446875  0.70040408  0.18594617     0.38600
H1252       H  0.04269819  0.63376363  0.29778465     0.30400
H1253       H  0.87736904  0.64920070  0.27435599     0.30500
H1254       H  0.97703242  0.56202599  0.22427794     0.30800
Zr1255     Zr  0.02550048  0.22446761  0.23409018     2.17500
O1256       O  0.00601955  0.26777930  0.22897185    -0.51600
O1257       O  0.00571274  0.22590236  0.19096410    -0.74800
O1258       O  0.05573097  0.25773714  0.22156162    -0.81600
O1259       O  0.99679456  0.21785590  0.29217751    -0.83300
O1260       O  0.09044685  0.23455166  0.20795516    -0.78900
O1261       O  0.98719881  0.23853441  0.25608054    -0.90600
O1262       O  0.00753270  0.18637973  0.17193758    -0.76500
O1263       O  0.05057158  0.19809430  0.20616629    -0.86000
O1264       O  0.00141399  0.18500129  0.23146056    -0.85700
O1265       O  0.06561640  0.21948026  0.25861038    -0.72500
O1266       O  0.02634749  0.20602065  0.27725633    -0.84600
Zr1267     Zr  0.06488741  0.13245749  0.26723274     2.26400
Zr1268     Zr  0.08998057  0.19267264  0.22981318     2.06300
Zr1269     Zr  0.99948689  0.16920871  0.27583010     2.10000
Zr1270     Zr  0.02778480  0.15813407  0.20376708     1.78800
O1271       O  0.98288537  0.15575935  0.31798257    -0.93400
O1272       O  0.05314313  0.15266792  0.16415581    -0.41200
O1273       O  0.02482063  0.14310577  0.24724798    -0.77900
O1274       O  0.06905562  0.15132614  0.22440998    -0.96600
O1275       O  0.08889206  0.17169616  0.27145177    -0.89900
O1276       O  0.04007468  0.15822966  0.29707040    -0.92700
C1277       C  0.00133941  0.21057227  0.17193569     1.01100
C1278       C  0.99115409  0.23988351  0.28009425     1.14000
C1279       C  0.07655715  0.25531132  0.20860278     1.04800
O1280       O  0.11086666  0.18279722  0.18863732    -0.94900
O1281       O  0.12471593  0.16314424  0.23662441    -0.90600
O1282       O  0.10923261  0.12464456  0.25160404    -0.83700
C1283       C  0.12770649  0.13946298  0.24370621     1.11400
O1284       O  0.06616992  0.23683812  0.32674434    -0.96800
Zr1285     Zr  0.06518396  0.19731416  0.30066463     1.88900
O1286       O  0.08357529  0.12585037  0.31067500    -0.73500
O1287       O  0.12626456  0.21926715  0.24378543    -0.52700
O1288       O  0.10656152  0.21984981  0.30259743    -0.97400
O1289       O  0.03786526  0.19979551  0.33913291    -0.54600
O1290       O  0.09108031  0.16619703  0.32667436    -0.74000
C1291       C  0.09405777  0.14126028  0.32723059     0.98400
O1292       O  0.07479531  0.08603013  0.26612652    -0.62800
O1293       O  0.95348696  0.17539554  0.26777974    -0.57600
O1294       O  0.02987508  0.09993870  0.26242726    -0.94300
O1295       O  0.99075009  0.12024475  0.26657785    -0.92700
O1296       O  0.98622677  0.13682898  0.19778363    -0.93100
O1297       O  0.03168210  0.11327950  0.18899646    -0.91900
C1298       C  0.00482640  0.09927380  0.26202073     1.17200
H1299       H  0.98427287  0.18791937  0.22427929     0.33100
H1300       H  0.07968707  0.14004633  0.21369623     0.44000
H1301       H  0.03745167  0.14956479  0.31347539     0.37500
H1302       H  0.07392865  0.23575240  0.26075509     0.34000
H1303       H  0.05535100  0.17051462  0.15711361     0.25800
H1304       H  0.13346547  0.21004161  0.25907723     0.31700
H1305       H  0.11697210  0.20995605  0.31543250     0.37600
H1306       H  0.98385033  0.13608694  0.17875329     0.32100
H1307       H  0.94586767  0.15789218  0.27034778     0.31000
H1308       H  0.97155544  0.14073163  0.31421165     0.32700
H1309       H  0.04377445  0.18519329  0.35030773     0.31600
H1310       H  0.04763817  0.10657035  0.19734538     0.35600
H1311       H  0.08011732  0.08239545  0.24804707     0.28300
H1312       H  0.00823953  0.27237123  0.21044756     0.32600
H1313       H  0.07681803  0.23243944  0.34213696     0.35400
H1314       H  0.94730993  0.18564620  0.28279476     0.28000
H1315       H  0.09082927  0.08409157  0.27643672     0.40900
H1316       H  0.10394178  0.19585479  0.17622862     0.31000
H1317       H  0.07071218  0.14748710  0.16985272     0.38600
H1318       H  0.02044325  0.19454545  0.33323553     0.30400
H1319       H  0.13949611  0.21683295  0.23010627     0.30500
H1320       H  0.01709623  0.28032700  0.23824861     0.30800
Zr1321     Zr  0.88383908  0.76913737  0.45006465     2.17500
O1322       O  0.92997711  0.76732113  0.44033514    -0.51600
O1323       O  0.89089724  0.81190898  0.42939628    -0.74800
O1324       O  0.89517703  0.75221666  0.40767963    -0.81600
O1325       O  0.88979751  0.76878575  0.52433792    -0.83300
O1326       O  0.85585927  0.75560413  0.38971613    -0.78900
O1327       O  0.91336045  0.76545951  0.48727681    -0.90600
O1328       O  0.85207392  0.82165709  0.41173348    -0.76500
O1329       O  0.84728438  0.77364906  0.42241595    -0.86000
O1330       O  0.85635562  0.79976263  0.47197148    -0.85700
O1331       O  0.86608820  0.72573798  0.44470949    -0.72500
O1332       O  0.87003623  0.74903018  0.48947249    -0.84600
Zr1333     Zr  0.78963369  0.73853832  0.47891356     2.26400
Zr1334     Zr  0.82804426  0.73154259  0.41859807     2.06300
Zr1335     Zr  0.84166258  0.77841765  0.51124627     2.10000
Zr1336     Zr  0.82009361  0.80331384  0.44308860     1.78800
O1337       O  0.83255663  0.76865175  0.55658779    -0.93400
O1338       O  0.79595593  0.80970274  0.40287961    -0.41200
O1339       O  0.81126053  0.77810982  0.47940459    -0.77900
O1340       O  0.79853772  0.76153451  0.43866436    -0.96600
O1341       O  0.81731818  0.70875543  0.45774279    -0.89900
O1342       O  0.82510520  0.73451565  0.50806116    -0.92700
C1343       C  0.87692332  0.82406725  0.41251325     1.01100
C1344       C  0.91196194  0.76471996  0.51216045     1.14000
C1345       C  0.88037207  0.75284856  0.38783952     1.04800
O1346       O  0.81351819  0.72593906  0.37414125    -0.94900
O1347       O  0.78426114  0.71547747  0.41192641    -0.90600
O1348       O  0.75944178  0.72780724  0.44583873    -0.83700
C1349       C  0.76267882  0.71656822  0.42426929     1.11400
O1350       O  0.89787269  0.68861835  0.48619021    -0.96800
Zr1351     Zr  0.85396867  0.70579393  0.48539363     1.88900
O1352       O  0.78403623  0.69601843  0.49932747    -0.73500
O1353       O  0.84748873  0.68991629  0.40670520    -0.52700
O1354       O  0.86111282  0.66523857  0.46195469    -0.97400
O1355       O  0.87102762  0.69955317  0.52900778    -0.54600
O1356       O  0.82273425  0.67605480  0.50432370    -0.74000
C1357       C  0.79813447  0.67703307  0.50713378     0.98400
O1358       O  0.74416758  0.73568287  0.49266196    -0.62800
O1359       O  0.85222628  0.82118905  0.52837896    -0.57600
O1360       O  0.77314931  0.75886275  0.51649394    -0.94300
O1361       O  0.79371899  0.79583862  0.51081143    -0.92700
O1362       O  0.82626504  0.84622489  0.46217291    -0.93100
O1363       O  0.78105770  0.82887252  0.45116389    -0.91900
C1364       C  0.77185872  0.78312957  0.51367381     1.17200
H1365       H  0.86492227  0.81615591  0.47525889     0.33100
H1366       H  0.78304162  0.76443317  0.42803763     0.44000
H1367       H  0.81986149  0.72762249  0.52470192     0.37500
H1368       H  0.87855462  0.71468714  0.43605134     0.34000
H1369       H  0.80432142  0.82469623  0.39414903     0.25800
H1370       H  0.83259315  0.67841664  0.40308937     0.31700
H1371       H  0.84412624  0.65639251  0.46179565     0.37600
H1372       H  0.83665247  0.85596782  0.44925430     0.32100
H1373       H  0.83569700  0.83099830  0.52774834     0.31000
H1374       H  0.84945546  0.77050632  0.56540191     0.32700
H1375       H  0.85582756  0.69500913  0.53978343     0.31600
H1376       H  0.78100251  0.84301476  0.43801993     0.35600
H1377       H  0.73997307  0.71687638  0.49298173     0.28300
H1378       H  0.93849600  0.78011447  0.45176484     0.32600
H1379       H  0.90690043  0.69799797  0.47202716     0.35400
H1380       H  0.85540871  0.81817317  0.54708132     0.28000
H1381       H  0.73272949  0.74304469  0.47911734     0.40900
H1382       H  0.80886120  0.74375012  0.36822740     0.31000
H1383       H  0.80062486  0.79451049  0.39203833     0.38600
H1384       H  0.87585510  0.71725476  0.53477164     0.30400
H1385       H  0.85549809  0.69310128  0.38953831     0.30500
H1386       H  0.93614539  0.75001017  0.44635068     0.30800
Zr1387     Zr  0.28590256  0.76545394  0.52947162     2.17500
O1388       O  0.23885515  0.76327102  0.53364964    -0.51600
O1389       O  0.27736138  0.80810523  0.51091046    -0.74800
O1390       O  0.25783447  0.78038841  0.56321574    -0.81600
O1391       O  0.29009302  0.72252243  0.48019010    -0.83300
O1392       O  0.28482761  0.78462523  0.59734893    -0.78900
O1393       O  0.27230738  0.76108893  0.48617924    -0.90600
O1394       O  0.31464100  0.83072756  0.51306569    -0.76500
O1395       O  0.31323078  0.79166759  0.55468021    -0.86000
O1396       O  0.32107075  0.77528967  0.50134952    -0.85700
O1397       O  0.29712771  0.73627711  0.56435186    -0.72500
O1398       O  0.30388458  0.72301845  0.51806742    -0.84600
Zr1399     Zr  0.38147582  0.73323834  0.55175513     2.26400
Zr1400     Zr  0.32526885  0.76302031  0.58919406     2.06300
Zr1401     Zr  0.33922304  0.73373808  0.48947596     2.10000
Zr1402     Zr  0.34874129  0.80109854  0.52747512     1.78800
O1403       O  0.34929953  0.69428051  0.46537881    -0.93400
O1404       O  0.35263003  0.83584981  0.55934744    -0.41200
O1405       O  0.36748955  0.75993364  0.51586409    -0.77900
O1406       O  0.36265294  0.77474261  0.56386756    -0.96600
O1407       O  0.34554758  0.72289024  0.57822866    -0.89900
O1408       O  0.35439810  0.70658715  0.52504178    -0.92700
C1409       C  0.29053370  0.82884801  0.50743754     1.01100
C1410       C  0.26947928  0.73778568  0.47977510     1.14000
C1411       C  0.26294157  0.78780129  0.58612237     1.04800
O1412       O  0.34392796  0.79791282  0.61495386    -0.94900
O1413       O  0.35250174  0.73934228  0.61826536    -0.90600
O1414       O  0.39061592  0.74224080  0.59736679    -0.83700
C1415       C  0.37708433  0.73908976  0.61813013     1.11400
O1416       O  0.29298945  0.68321791  0.59076912    -0.96800
Zr1417     Zr  0.31920756  0.69592344  0.55348366     1.88900
O1418       O  0.38977465  0.68833695  0.56660358    -0.73500
O1419       O  0.29844329  0.75102725  0.62622250    -0.52700
O1420       O  0.28317793  0.66570756  0.54817963    -0.97400
O1421       O  0.33299350  0.65733341  0.52945806    -0.54600
O1422       O  0.35138299  0.67809273  0.58442286    -0.74000
C1423       C  0.37624720  0.67611793  0.58364806     0.98400
O1424       O  0.42709940  0.73572600  0.56401778    -0.62800
O1425       O  0.33529587  0.75145311  0.44577432    -0.57600
O1426       O  0.41219379  0.73736918  0.51565640    -0.94300
O1427       O  0.38812773  0.74282289  0.47900783    -0.92700
O1428       O  0.36205972  0.81457078  0.48408012    -0.93100
O1429       O  0.38815670  0.82682528  0.52922489    -0.91900
C1430       C  0.41062495  0.74267473  0.49131059     1.17200
H1431       H  0.31563421  0.78470711  0.48592955     0.33100
H1432       H  0.37476163  0.78459801  0.57421480     0.44000
H1433       H  0.36397313  0.69170521  0.51888860     0.37500
H1434       H  0.28185329  0.73239553  0.57433907     0.34000
H1435       H  0.34492482  0.85144263  0.55093059     0.25800
H1436       H  0.30354825  0.76307951  0.64020314     0.31700
H1437       H  0.28877553  0.64875796  0.55561346     0.37600
H1438       H  0.34604196  0.81999080  0.47499546     0.32100
H1439       H  0.35050289  0.74442457  0.43640058     0.31000
H1440       H  0.34088975  0.68009988  0.47533451     0.32700
H1441       H  0.31911632  0.65364843  0.51679107     0.31600
H1442       H  0.38440175  0.84304159  0.51938698     0.35600
H1443       H  0.43608438  0.72124162  0.55506230     0.28300
H1444       H  0.23147689  0.76669349  0.51629018     0.32600
H1445       H  0.30311128  0.68878075  0.60604910     0.35400
H1446       H  0.32035296  0.74218137  0.43821010     0.28000
H1447       H  0.43408485  0.75193136  0.55627485     0.40900
H1448       H  0.32892525  0.80866825  0.62034215     0.31000
H1449       H  0.34027345  0.83128276  0.57329219     0.38600
H1450       H  0.33247003  0.64273990  0.54208410     0.30400
H1451       H  0.30463067  0.73363530  0.63192133     0.30500
H1452       H  0.23393372  0.74531514  0.53842357     0.30800
Zr1453     Zr  0.54573167  0.73386239  0.52413624     2.17500
O1454       O  0.49895028  0.73452304  0.53182763    -0.51600
O1455       O  0.54404996  0.75400999  0.56703519    -0.74800
O1456       O  0.52041479  0.69821433  0.54028507    -0.81600
O1457       O  0.54179934  0.76882996  0.46698226    -0.83300
O1458       O  0.54662274  0.66284750  0.54334479    -0.78900
O1459       O  0.52387192  0.77059505  0.50583859    -0.90600
O1460       O  0.58428117  0.75995425  0.58322721    -0.76500
O1461       O  0.57791590  0.71402221  0.55013653    -0.86000
O1462       O  0.57959829  0.76517654  0.52454610    -0.85700
O1463       O  0.55514030  0.69444640  0.50070374    -0.72500
O1464       O  0.56203680  0.73610512  0.48217988    -0.84600
Zr1465     Zr  0.63875526  0.70980758  0.48445747     2.26400
Zr1466     Zr  0.58872948  0.67536399  0.52680488     2.06300
Zr1467     Zr  0.59160413  0.76911733  0.47936892     2.10000
Zr1468     Zr  0.61290045  0.74401302  0.54963351     1.78800
O1469       O  0.59793622  0.78791639  0.43638169    -0.93400
O1470       O  0.62415617  0.72328887  0.59078568    -0.41200
O1471       O  0.62405143  0.74862301  0.50524127    -0.77900
O1472       O  0.62549824  0.70364358  0.52921562    -0.96600
O1473       O  0.60358337  0.68013994  0.48307641    -0.89900
O1474       O  0.60705947  0.73048749  0.45699921    -0.92700
C1475       C  0.55962158  0.76136694  0.58489723     1.01100
C1476       C  0.52085074  0.77024277  0.48161334     1.14000
C1477       C  0.52503485  0.67464680  0.54696175     1.04800
O1478       O  0.61122677  0.66437940  0.56692815    -0.94900
O1479       O  0.61488366  0.64881109  0.49901586    -0.90600
O1480       O  0.65374583  0.66738081  0.49989279    -0.83700
C1481       C  0.63949296  0.64709185  0.49935017     1.11400
O1482       O  0.53989494  0.69044538  0.42416477    -0.96800
Zr1483     Zr  0.57213886  0.69995464  0.45728475     1.88900
O1484       O  0.64267668  0.69111187  0.44100725    -0.73500
O1485       O  0.58040189  0.62934981  0.53492600    -0.52700
O1486       O  0.54453838  0.66143550  0.45827788    -0.97400
O1487       O  0.56627341  0.72716091  0.41877692    -0.54600
O1488       O  0.60445934  0.67059472  0.43726284    -0.74000
C1489       C  0.62865086  0.67280266  0.43172975     0.98400
O1490       O  0.68510590  0.70040368  0.48387970    -0.62800
O1491       O  0.58261278  0.81439861  0.49032813    -0.57600
O1492       O  0.66700510  0.74786374  0.48235646    -0.94300
O1493       O  0.64034344  0.78319652  0.48550064    -0.92700
O1494       O  0.62845561  0.78869265  0.55223966    -0.93100
O1495       O  0.65880341  0.74756827  0.55945743    -0.91900
C1496       C  0.66379399  0.77247313  0.48541053     1.17200
H1497       H  0.57402803  0.78163340  0.53189311     0.33100
H1498       H  0.63939189  0.69557869  0.53900217     0.44000
H1499       H  0.61382330  0.73433276  0.43988910     0.37500
H1500       H  0.54006415  0.68342334  0.49962348     0.34000
H1501       H  0.60862957  0.71315964  0.59571560     0.25800
H1502       H  0.57431406  0.62247837  0.51809361     0.31700
H1503       H  0.55512902  0.64789581  0.46706073     0.37600
H1504       H  0.61285531  0.79939047  0.55569297     0.32100
H1505       H  0.59558029  0.81862902  0.50377286     0.31000
H1506       H  0.61271398  0.79995078  0.43843646     0.32700
H1507       H  0.58149055  0.72339302  0.40770743     0.31600
H1508       H  0.66750291  0.73658586  0.54630839     0.35600
H1509       H  0.69253566  0.70956313  0.49898546     0.28300
H1510       H  0.49443963  0.75191466  0.53880699     0.32600
H1511       H  0.54902326  0.67980829  0.41099385     0.35400
H1512       H  0.58812671  0.82455441  0.47493369     0.28000
H1513       H  0.69231159  0.70919782  0.46835202     0.40900
H1514       H  0.62542650  0.65253459  0.56160530     0.31000
H1515       H  0.63727763  0.70987775  0.58646293     0.38600
H1516       H  0.56871402  0.74532127  0.42463379     0.30400
H1517       H  0.59750371  0.62101119  0.53763577     0.30500
H1518       H  0.49028957  0.73343966  0.51480207     0.30800
Zr1519     Zr  0.03287697  0.77740104  0.48344379     2.17500
O1520       O  0.98602528  0.77368848  0.48736039    -0.51600
O1521       O  0.02752267  0.75828152  0.44068643    -0.74800
O1522       O  0.00872215  0.80923020  0.45986102    -0.81600
O1523       O  0.04116569  0.73611616  0.53072823    -0.83300
O1524       O  0.01825234  0.84524852  0.48176347    -0.78900
O1525       O  0.02050574  0.73421580  0.49355773    -0.90600
O1526       O  0.06356915  0.76663478  0.41731317    -0.76500
O1527       O  0.05688826  0.80693786  0.45821999    -0.86000
O1528       O  0.07092090  0.75328745  0.47338493    -0.85700
O1529       O  0.04020250  0.81277067  0.51384116    -0.72500
O1530       O  0.05297847  0.76965022  0.52545185    -0.84600
Zr1531     Zr  0.12623591  0.81001308  0.51434040     2.26400
Zr1532     Zr  0.06472002  0.84205824  0.48708682     2.06300
Zr1533     Zr  0.08972550  0.74379460  0.51530966     2.10000
Zr1534     Zr  0.09499663  0.78388308  0.44775012     1.78800
O1535       O  0.10378111  0.72142942  0.55465461    -0.93400
O1536       O  0.09002395  0.81284348  0.41033546    -0.41200
O1537       O  0.11449393  0.77320195  0.48854418    -0.77900
O1538       O  0.10467182  0.82147068  0.47409634    -0.96600
O1539       O  0.08797152  0.83277804  0.52603295    -0.89900
O1540       O  0.10291299  0.78043121  0.54182725    -0.92700
C1541       C  0.04041482  0.75811347  0.41944494     1.01100
C1542       C  0.01936511  0.73253302  0.51780032     1.14000
C1543       C  0.00550991  0.83330585  0.46430605     1.04800
O1544       O  0.07732065  0.86300853  0.44654018    -0.94900
O1545       O  0.08899959  0.87319181  0.51127392    -0.90600
O1546       O  0.12911061  0.85690907  0.50563611    -0.83700
C1547       C  0.11347430  0.87562350  0.51143808     1.11400
O1548       O  0.02772303  0.79784525  0.58124479    -0.96800
Zr1549     Zr  0.06513472  0.80497811  0.55333794     1.88900
O1550       O  0.13625696  0.82419664  0.55899053    -0.73500
O1551       O  0.04205509  0.88367560  0.48730058    -0.52700
O1552       O  0.04035140  0.84327984  0.56617189    -0.97400
O1553       O  0.07286853  0.77611097  0.59029077    -0.54600
O1554       O  0.09695602  0.83363391  0.57576948    -0.74000
C1555       C  0.12182488  0.83639472  0.57541336     0.98400
O1556       O  0.16991841  0.82750882  0.51026231    -0.62800
O1557       O  0.08688068  0.69862398  0.50134701    -0.57600
O1558       O  0.15856050  0.77535707  0.50447028    -0.94300
O1559       O  0.13828200  0.73600266  0.50403156    -0.92700
O1560       O  0.11616378  0.74387390  0.43373729    -0.93100
O1561       O  0.13461837  0.79471499  0.42469081    -0.91900
C1562       C  0.15918165  0.75037261  0.50102344     1.17200
H1563       H  0.06727109  0.73745183  0.46407067     0.33100
H1564       H  0.11523830  0.83360340  0.46419354     0.44000
H1565       H  0.11318742  0.77509961  0.55652481     0.37500
H1566       H  0.02383866  0.81988423  0.51928248     0.34000
H1567       H  0.07136826  0.81725167  0.40958322     0.25800
H1568       H  0.05275656  0.89537753  0.47652078     0.31700
H1569       H  0.04796881  0.85778224  0.55602385     0.37600
H1570       H  0.11348854  0.74344545  0.41473643     0.32100
H1571       H  0.09217526  0.69899724  0.48289771     0.31000
H1572       H  0.12275918  0.71960196  0.55270215     0.32700
H1573       H  0.08996858  0.78122685  0.59719680     0.31600
H1574       H  0.14041434  0.81150087  0.43202078     0.35600
H1575       H  0.18215732  0.81373902  0.51577614     0.28300
H1576       H  0.97880381  0.79125978  0.49059334     0.32600
H1577       H  0.02477439  0.77878757  0.58126429     0.35400
H1578       H  0.10137354  0.68970003  0.51032146     0.28000
H1579       H  0.17279175  0.82952162  0.49138856     0.40900
H1580       H  0.06149123  0.86258069  0.43574117     0.31000
H1581       H  0.09847149  0.82937498  0.41523637     0.38600
H1582       H  0.07561494  0.75861629  0.58272873     0.30400
H1583       H  0.04334060  0.89040884  0.50519460     0.30500
H1584       H  0.97988839  0.76882910  0.46987670     0.30800
C1585       C  0.20084526  0.71993199  0.50338135    -0.12500
C1586       C  0.18561441  0.73941287  0.49083095     0.04500
C1587       C  0.19789724  0.75174401  0.46940590    -0.07800
C1588       C  0.22444871  0.74762739  0.46325786    -0.08600
C1589       C  0.24058799  0.73036383  0.47734626    -0.03100
C1590       C  0.22756752  0.71504235  0.49636987     0.03700
N1591       N  0.24215137  0.69631316  0.51071195     0.66200
H1592       H  0.19260125  0.70944243  0.51964623     0.15100
H1593       H  0.23305000  0.75962725  0.44822345     0.14800
N1594       N  0.18311070  0.76820763  0.45281373     0.73900
O1595       O  0.25321637  0.70331938  0.53126449    -0.39500
O1596       O  0.24961061  0.67576493  0.49956888    -0.39500
O1597       O  0.18211465  0.79242981  0.45677308    -0.40200
O1598       O  0.16838557  0.75795194  0.43633492    -0.40200
C1599       C  0.45508394  0.73619287  0.46671046    -0.12500
C1600       C  0.43670552  0.75245540  0.47933616     0.04500
C1601       C  0.44657996  0.77697374  0.48717795    -0.07800
C1602       C  0.47320541  0.78392523  0.48459721    -0.08600
C1603       C  0.49196851  0.76740850  0.47322056    -0.03100
C1604       C  0.48176836  0.74380878  0.46301925     0.03700
N1605       N  0.49901537  0.72623815  0.45066238     0.66200
H1606       H  0.44916180  0.71691311  0.46073903     0.15100
H1607       H  0.47959467  0.80196734  0.49329827     0.14800
N1608       N  0.42973968  0.79467011  0.49988672     0.73900
O1609       O  0.51151045  0.71017939  0.46440989    -0.39500
O1610       O  0.50691407  0.73170340  0.42814013    -0.39500
O1611       O  0.42723479  0.79317836  0.52417040    -0.40200
O1612       O  0.41313762  0.80681723  0.48658396    -0.40200
C1613       C  0.94490399  0.72877907  0.51745417    -0.12500
C1614       C  0.93708805  0.75398715  0.52506580     0.04500
C1615       C  0.95685985  0.76892135  0.53735889    -0.07800
C1616       C  0.98306430  0.75930404  0.53947406    -0.08600
C1617       C  0.99138374  0.73530879  0.52851977    -0.03100
C1618       C  0.97097036  0.71971252  0.51839255     0.03700
N1619       N  0.97646044  0.69537605  0.50620562     0.66200
H1620       H  0.93084738  0.71657876  0.50803121     0.15100
H1621       H  0.99767192  0.77263576  0.54621569     0.14800
N1622       N  0.95175874  0.79491331  0.54569044     0.73900
O1623       O  0.97173580  0.67465346  0.51858734    -0.39500
O1624       O  0.97702335  0.69459750  0.48175538    -0.39500
O1625       O  0.94897229  0.79896942  0.56963658    -0.40200
O1626       O  0.95858944  0.81361474  0.53128282    -0.40200
C1627       C  0.73591714  0.79464641  0.48156720    -0.12500
C1628       C  0.74427697  0.79316831  0.50760701     0.04500
C1629       C  0.72419079  0.79032555  0.52616546    -0.07800
C1630       C  0.69759401  0.78731998  0.51869261    -0.08600
C1631       C  0.68933569  0.78685675  0.49240170    -0.03100
C1632       C  0.70944035  0.79161180  0.47393151     0.03700
N1633       N  0.70396940  0.79183679  0.44683641     0.66200
H1634       H  0.75042932  0.79490512  0.46648367     0.15100
H1635       H  0.68350291  0.78342169  0.53369845     0.14800
N1636       N  0.73108074  0.78829908  0.55290381     0.73900
O1637       O  0.70319110  0.81359728  0.43532861    -0.39500
O1638       O  0.70911946  0.77171586  0.43380085    -0.39500
O1639       O  0.74034851  0.80802173  0.56403387    -0.40200
O1640       O  0.73509527  0.76601369  0.56260367    -0.40200
C1641       C  0.01910334  0.74568469  0.34976162    -0.12500
C1642       C  0.00525419  0.72235662  0.35242125     0.04500
C1643       C  0.00161377  0.71197496  0.37768931    -0.07800
C1644       C  0.01280987  0.72426084  0.39914933    -0.08600
C1645       C  0.02786645  0.74675380  0.39620921    -0.03100
C1646       C  0.03043261  0.75781239  0.37119063     0.03700
N1647       N  0.04378688  0.78177521  0.36709186     0.66200
H1648       H  0.02190981  0.75428038  0.33072879     0.15100
H1649       H  0.01006413  0.71580636  0.41825748     0.14800
N1650       N  0.98600070  0.68950689  0.38225713     0.73900
O1651       O  0.06618597  0.78111368  0.35737051    -0.39500
O1652       O  0.03072537  0.80254724  0.36534412    -0.39500
O1653       O  0.99701960  0.66812437  0.38750613    -0.40200
O1654       O  0.96283085  0.69282967  0.38928524    -0.40200
C1655       C  0.92464922  0.75072771  0.32948408    -0.12500
C1656       C  0.90886526  0.73692933  0.31216172     0.04500
C1657       C  0.88296571  0.73200020  0.31880497    -0.07800
C1658       C  0.87429818  0.73819830  0.34339246    -0.08600
C1659       C  0.89080767  0.74936421  0.36174654    -0.03100
C1660       C  0.91594259  0.75682190  0.35426950     0.03700
N1661       N  0.93263318  0.77116743  0.37092888     0.66200
H1662       H  0.94454461  0.75523643  0.32459062     0.15100
H1663       H  0.85461762  0.73317030  0.34833068     0.14800
N1664       N  0.86526755  0.72002846  0.30131652     0.73900
O1665       O  0.94978786  0.75890460  0.38345856    -0.39500
O1666       O  0.93609663  0.79504452  0.36607609    -0.39500
O1667       O  0.85901635  0.69658632  0.30525835    -0.40200
O1668       O  0.84998873  0.73451818  0.28867528    -0.40200
C1669       C  0.99183351  0.31521504  0.28590417    -0.12500
C1670       C  0.01849359  0.32108067  0.28446797     0.04500
C1671       C  0.03543092  0.29927906  0.28755916    -0.07800
C1672       C  0.02574693  0.27332014  0.29049415    -0.08600
C1673       C  0.99909812  0.26724484  0.28950510    -0.03100
C1674       C  0.98218289  0.28920675  0.28785254     0.03700
N1675       N  0.95487352  0.28559818  0.28633603     0.66200
H1676       H  0.97805229  0.33091461  0.28311635     0.15100
H1677       H  0.03952240  0.25741873  0.29031897     0.14800
N1678       N  0.06275364  0.30252686  0.28557773     0.73900
O1679       O  0.94149851  0.28892214  0.30653582    -0.39500
O1680       O  0.94398445  0.28738376  0.26450675    -0.39500
O1681       O  0.07614835  0.30086903  0.30596712    -0.40200
O1682       O  0.07355296  0.29855102  0.26400115    -0.40200
C1683       C  0.06124897  0.52540750  0.24719763    -0.12500
C1684       C  0.05331613  0.51649007  0.27179519     0.04500
C1685       C  0.04654517  0.53638943  0.28963420    -0.07800
C1686       C  0.04489303  0.56327588  0.28191545    -0.08600
C1687       C  0.05020078  0.57191594  0.25621320    -0.03100
C1688       C  0.05960296  0.55209896  0.23926656     0.03700
N1689       N  0.06524643  0.55788485  0.21280084     0.66200
H1690       H  0.06531990  0.51111336  0.23254171     0.15100
H1691       H  0.03735740  0.57722458  0.29571805     0.14800
N1692       N  0.03994931  0.52916148  0.31557811     0.73900
O1693       O  0.08867290  0.55859711  0.20593760    -0.39500
O1694       O  0.04833128  0.55287645  0.19593977    -0.39500
O1695       O  0.05776855  0.52212979  0.33083351    -0.40200
O1696       O  0.01688224  0.52317579  0.32086147    -0.40200
C1697       C  0.90608007  0.86229901  0.40267853    -0.12500
C1698       C  0.89052317  0.84198575  0.39336529     0.04500
C1699       C  0.88939800  0.83886108  0.36602440    -0.07800
C1700       C  0.90566901  0.85361258  0.34943070    -0.08600
C1701       C  0.92123984  0.87394683  0.35873723    -0.03100
C1702       C  0.91988317  0.87910824  0.38574689     0.03700
N1703       N  0.93093955  0.90210919  0.39638847     0.66200
H1704       H  0.90657492  0.86597299  0.42334449     0.15100
H1705       H  0.90542268  0.84966118  0.32881158     0.14800
N1706       N  0.87149392  0.82138702  0.35437837     0.73900
O1707       O  0.91778179  0.92286235  0.39547384    -0.39500
O1708       O  0.94771743  0.89975276  0.41392711    -0.39500
O1709       O  0.84993852  0.83042845  0.34710095    -0.40200
O1710       O  0.88022239  0.80145888  0.34314718    -0.40200
C1711       C  0.00420520  0.06336201  0.22875521    -0.12500
C1712       C  0.99344874  0.07328878  0.25183895     0.04500
C1713       C  0.97627663  0.05601003  0.26509705    -0.07800
C1714       C  0.97308343  0.02944877  0.25676488    -0.08600
C1715       C  0.98654822  0.01882813  0.23523145    -0.03100
C1716       C  0.00086240  0.03728254  0.22036105     0.03700
N1717       N  0.01452927  0.02934355  0.19763301     0.66200
H1718       H  0.01705510  0.07565067  0.21765157     0.15100
H1719       H  0.96258974  0.01633543  0.26930260     0.14800
N1720       N  0.96394736  0.06375832  0.28857586     0.73900
O1721       O  0.00496793  0.03489130  0.17577670    -0.39500
O1722       O  0.03852106  0.02495007  0.19921998    -0.39500
O1723       O  0.93996316  0.06843199  0.28813718    -0.40200
O1724       O  0.97437846  0.05757917  0.30985945    -0.40200
C1725       C  0.01400426  0.78082078  0.21716472    -0.12500
C1726       C  0.03352651  0.76872911  0.23253594     0.04500
C1727       C  0.04740225  0.78605258  0.24886183    -0.07800
C1728       C  0.04037136  0.81276281  0.25125594    -0.08600
C1729       C  0.01904856  0.82418737  0.23832596    -0.03100
C1730       C  0.00648085  0.80773049  0.22008684     0.03700
N1731       N  0.98455725  0.81697103  0.20594195     0.66200
H1732       H  0.00234209  0.76858287  0.20479820     0.15100
H1733       H  0.05074833  0.82434857  0.26528737     0.14800
N1734       N  0.06757868  0.77649273  0.26526220     0.73900
O1735       O  0.98762367  0.82408307  0.18269325    -0.39500
O1736       O  0.96223568  0.81061884  0.21354590    -0.39500
O1737       O  0.09067565  0.78191189  0.25948271    -0.40200
O1738       O  0.06222375  0.77082233  0.28848194    -0.40200
C1739       C  0.98795900  0.85049650  0.39865445    -0.12500
C1740       C  0.99853587  0.87542854  0.39903922     0.04500
C1741       C  0.00075271  0.88864840  0.42303374    -0.07800
C1742       C  0.99504116  0.87548605  0.44588003    -0.08600
C1743       C  0.99076473  0.84867005  0.44536595    -0.03100
C1744       C  0.98368123  0.83715734  0.42163768     0.03700
N1745       N  0.97242230  0.81195137  0.42029923     0.66200
H1746       H  0.98359694  0.84094430  0.38047923     0.15100
H1747       H  0.99824801  0.88535488  0.46410038     0.14800
N1748       N  0.01007634  0.91471126  0.42505906     0.73900
O1749       O  0.94836877  0.81097541  0.41649374    -0.39500
O1750       O  0.98629291  0.79308654  0.41292825    -0.39500
O1751       O  0.99394800  0.93279231  0.42906130    -0.40200
O1752       O  0.03331135  0.91806945  0.43170417    -0.40200
C1753       C  0.16252811  0.99598331  0.25157310    -0.12500
C1754       C  0.15891827  0.00954534  0.22805714     0.04500
C1755       C  0.13376572  0.00926921  0.21675621    -0.07800
C1756       C  0.11351025  0.99594718  0.22907102    -0.08600
C1757       C  0.11743958  0.98182062  0.25202883    -0.03100
C1758       C  0.14229791  0.98191467  0.26330242     0.03700
N1759       N  0.14733157  0.96839895  0.28698784     0.66200
H1760       H  0.18142997  0.99559058  0.26065678     0.15100
H1761       H  0.09454296  0.99603062  0.22008633     0.14800
N1762       N  0.12815497  0.02179601  0.19253982     0.73900
O1763       O  0.14395971  0.98026169  0.30809902    -0.39500
O1764       O  0.16175415  0.94849083  0.28658710    -0.39500
O1765       O  0.12877670  0.00824844  0.17219974    -0.40200
O1766       O  0.11444141  0.04220585  0.19257774    -0.40200
C1767       C  0.17441618  0.14876736  0.24026139    -0.12500
C1768       C  0.15481276  0.12994828  0.24324491     0.04500
C1769       C  0.16212484  0.10352705  0.24633487    -0.07800
C1770       C  0.18813895  0.09653522  0.24422549    -0.08600
C1771       C  0.20695634  0.11510687  0.23796939    -0.03100
C1772       C  0.20012695  0.14158824  0.23699068     0.03700
N1773       N  0.21868713  0.16144589  0.23161502     0.66200
H1774       H  0.16984788  0.16938897  0.23929799     0.15100
H1775       H  0.19317965  0.07600172  0.24470252     0.14800
N1776       N  0.14363293  0.08323818  0.24984982     0.73900
O1777       O  0.21980514  0.17079727  0.20896608    -0.39500
O1778       O  0.22687339  0.17498592  0.25022703    -0.39500
O1779       O  0.13656850  0.07069540  0.23018622    -0.40200
O1780       O  0.14174251  0.07248727  0.27182586    -0.40200
C1781       C  0.14843866  0.90011187  0.60529653    -0.12500
C1782       C  0.16586309  0.89118306  0.62417435     0.04500
C1783       C  0.16561549  0.86412848  0.62982523    -0.07800
C1784       C  0.15189499  0.84646602  0.61367111    -0.08600
C1785       C  0.13473398  0.85540964  0.59418706    -0.03100
C1786       C  0.13120676  0.88299403  0.59233231     0.03700
N1787       N  0.10899301  0.89415917  0.57968768     0.66200
H1788       H  0.14687240  0.92095402  0.60217146     0.15100
H1789       H  0.15374015  0.82570330  0.61719245     0.14800
N1790       N  0.17697722  0.85474512  0.65331854     0.73900
O1791       O  0.08717063  0.88372741  0.58294242    -0.39500
O1792       O  0.10954495  0.91776621  0.57272622    -0.39500
O1793       O  0.16303713  0.85352156  0.67337170    -0.40200
O1794       O  0.20116933  0.85497510  0.65591161    -0.40200
C1795       C  0.24691493  0.80429632  0.62658853    -0.12500
C1796       C  0.24401219  0.80376588  0.59985725     0.04500
C1797       C  0.23485826  0.82614270  0.58709527    -0.07800
C1798       C  0.23736735  0.85035600  0.59912968    -0.08600
C1799       C  0.24698187  0.85161809  0.62461112    -0.03100
C1800       C  0.24982165  0.82799408  0.63898343     0.03700
N1801       N  0.25814446  0.82715711  0.66535437     0.66200
H1802       H  0.25229984  0.78659475  0.63688555     0.15100
H1803       H  0.23231984  0.86794448  0.58851667     0.14800
N1804       N  0.22437534  0.82425625  0.56162601     0.73900
O1805       O  0.24141524  0.82301148  0.68270681    -0.39500
O1806       O  0.28141088  0.82118241  0.66996990    -0.39500
O1807       O  0.20473787  0.81017295  0.55819993    -0.40200
O1808       O  0.23786833  0.83096819  0.54236798    -0.40200
C1809       C  0.24435862  0.87436307  0.47042210    -0.12500
C1810       C  0.25374884  0.89893348  0.47763582     0.04500
C1811       C  0.27506731  0.89995981  0.49480710    -0.07800
C1812       C  0.28665307  0.87692066  0.50376807    -0.08600
C1813       C  0.27721631  0.85237636  0.49678311    -0.03100
C1814       C  0.25548896  0.85124624  0.48005337     0.03700
N1815       N  0.24432157  0.82700966  0.47251140     0.66200
H1816       H  0.22783636  0.87303913  0.45756751     0.15100
H1817       H  0.30307853  0.87837328  0.51673157     0.14800
N1818       N  0.28581751  0.92409355  0.50310157     0.73900
O1819       O  0.22484732  0.81880522  0.48477912    -0.39500
O1820       O  0.24840766  0.81866751  0.44989640    -0.39500
O1821       O  0.28116603  0.93159791  0.52590138    -0.40200
O1822       O  0.30585349  0.93239615  0.49182898    -0.40200
C1823       C  0.10496956  0.12141708  0.37135692    -0.12500
C1824       C  0.11268961  0.12956037  0.34657111     0.04500
C1825       C  0.13865734  0.12539794  0.33954440    -0.07800
C1826       C  0.15565650  0.11116537  0.35563758    -0.08600
C1827       C  0.14797431  0.10178069  0.38018561    -0.03100
C1828       C  0.12231602  0.10819254  0.38831989     0.03700
N1829       N  0.11296167  0.10111532  0.41336702     0.66200
H1830       H  0.08524767  0.12502399  0.37754160     0.15100
H1831       H  0.17501464  0.10713377  0.34858827     0.14800
N1832       N  0.14745582  0.13402543  0.31491265     0.73900
O1833       O  0.11274362  0.11834126  0.43074476    -0.39500
O1834       O  0.09707273  0.08260029  0.41506838    -0.39500
O1835       O  0.15282099  0.15778557  0.31159158    -0.40200
O1836       O  0.14168686  0.12038413  0.29565115    -0.40200
C1837       C  0.28180006  0.00327454  0.31621750    -0.12500
C1838       C  0.25791344  0.99530030  0.32675164     0.04500
C1839       C  0.24225891  0.97981397  0.31003088    -0.07800
C1840       C  0.24831754  0.97594087  0.28334449    -0.08600
C1841       C  0.27105366  0.98581274  0.27220313    -0.03100
C1842       C  0.28862235  0.99806464  0.28981401     0.03700
N1843       N  0.31358636  0.00584157  0.28077172     0.66200
H1844       H  0.29502903  0.01419864  0.32823067     0.15100
H1845       H  0.23448001  0.96610166  0.27107845     0.14800
N1846       N  0.22091646  0.96596948  0.32054651     0.73900
O1847       O  0.31796334  0.02948069  0.27558267    -0.39500
O1848       O  0.33002552  0.98868209  0.27463074    -0.39500
O1849       O  0.19842023  0.97542563  0.31938597    -0.40200
O1850       O  0.22506069  0.94531663  0.33321170    -0.40200
C1851       C  0.24635347  0.03338490  0.56194470    -0.12500
C1852       C  0.26154676  0.01575747  0.57645861     0.04500
C1853       C  0.28339970  0.00530753  0.56307994    -0.07800
C1854       C  0.28741834  0.00961020  0.53614154    -0.08600
C1855       C  0.27066512  0.02485715  0.52071915    -0.03100
C1856       C  0.25098758  0.03835207  0.53490283     0.03700
N1857       N  0.23396258  0.05588996  0.52205046     0.66200
H1858       H  0.22958114  0.04213460  0.57107811     0.15100
H1859       H  0.30297277  0.99903484  0.52670805     0.14800
N1860       N  0.30239798  0.99029149  0.57650702     0.73900
O1861       O  0.21152486  0.04812323  0.51654940    -0.39500
O1862       O  0.23760932  0.07995141  0.52532841    -0.39500
O1863       O  0.30298089  0.96595118  0.57311025    -0.40200
O1864       O  0.32299891  0.00168143  0.58291211    -0.40200
C1865       C  0.12400823  0.94811937  0.51909874    -0.12500
C1866       C  0.15089322  0.94782663  0.52123650     0.04500
C1867       C  0.16314907  0.92450873  0.52945362    -0.07800
C1868       C  0.14996962  0.90114266  0.52734956    -0.08600
C1869       C  0.12437379  0.90086631  0.51871991    -0.03100
C1870       C  0.11056636  0.92480820  0.51715365     0.03700
N1871       N  0.08337941  0.92636797  0.51274110     0.66200
H1872       H  0.11376867  0.96620961  0.51522475     0.15100
H1873       H  0.16016873  0.88311053  0.53163409     0.14800
N1874       N  0.18901826  0.92382437  0.53908968     0.73900
O1875       O  0.07575069  0.93422286  0.49081517    -0.39500
O1876       O  0.06889263  0.93014631  0.53208696    -0.39500
O1877       O  0.19195887  0.92094573  0.56320690    -0.40200
O1878       O  0.20692094  0.91626438  0.52423519    -0.40200
C1879       C  0.09849441  0.03977226  0.35774421    -0.12500
C1880       C  0.09934574  0.03083723  0.38359067     0.04500
C1881       C  0.07548531  0.02629541  0.39657489    -0.07800
C1882       C  0.05296380  0.02397411  0.38201662    -0.08600
C1883       C  0.05433972  0.02528281  0.35507597    -0.03100
C1884       C  0.07531957  0.03839311  0.34383978     0.03700
N1885       N  0.07394147  0.04716167  0.31757380     0.66200
H1886       H  0.11591069  0.04631023  0.34801375     0.15100
H1887       H  0.03576309  0.01625066  0.39128589     0.14800
N1888       N  0.07375453  0.02073172  0.42364108     0.73900
O1889       O  0.08811561  0.03668955  0.30059704    -0.39500
O1890       O  0.05494592  0.06107855  0.31062112    -0.39500
O1891       O  0.06539744  0.03846801  0.43835319    -0.40200
O1892       O  0.07083534  0.99729823  0.43057463    -0.40200
C1893       C  0.25624749  0.95248056  0.06047065    -0.12500
C1894       C  0.24171546  0.96909128  0.07706990     0.04500
C1895       C  0.21952998  0.98070059  0.06515849    -0.07800
C1896       C  0.21391933  0.97778215  0.03833817    -0.08600
C1897       C  0.22958677  0.96338062  0.02128883    -0.03100
C1898       C  0.24995843  0.94918178  0.03340319     0.03700
N1899       N  0.26641931  0.93379877  0.01752918     0.66200
H1900       H  0.27375503  0.94352083  0.06791600     0.15100
H1901       H  0.19839012  0.98946739  0.03016125     0.14800
N1902       N  0.20371940  0.99853041  0.07910057     0.73900
O1903       O  0.28743342  0.94350510  0.00978197    -0.39500
O1904       O  0.25682900  0.91475181  0.00553437    -0.39500
O1905       O  0.20652733  0.02250175  0.07435318    -0.40200
O1906       O  0.18200355  0.99063914  0.08702099    -0.40200
C1907       C  0.23709689  0.02019738  0.81688010    -0.12500
C1908       C  0.22650752  0.99652048  0.82591465     0.04500
C1909       C  0.21239859  0.98223500  0.80693091    -0.07800
C1910       C  0.21117727  0.99067875  0.78024803    -0.08600
C1911       C  0.22468901  0.01278274  0.77078754    -0.03100
C1912       C  0.23671388  0.02813239  0.79039189     0.03700
N1913       N  0.25098603  0.05096987  0.78363413     0.66200
H1914       H  0.24823715  0.03175996  0.83029085     0.15100
H1915       H  0.20219372  0.97790976  0.76630793     0.14800
N1916       N  0.20056741  0.95807285  0.81363174     0.73900
O1917       O  0.24057959  0.07294353  0.78729890    -0.39500
O1918       O  0.27535111  0.04952193  0.78265584    -0.39500
O1919       O  0.17640755  0.95769234  0.81711899    -0.40200
O1920       O  0.21205510  0.93712323  0.80790963    -0.40200
C1921       C  0.88553373  0.59944164  0.12364607    -0.12500
C1922       C  0.87449847  0.57853606  0.13758320     0.04500
C1923       C  0.88575244  0.57220402  0.16199099    -0.07800
C1924       C  0.90694040  0.58643999  0.17145948    -0.08600
C1925       C  0.91749406  0.60779076  0.15798021    -0.03100
C1926       C  0.90638951  0.61418808  0.13362768     0.03700
N1927       N  0.91658550  0.63475010  0.11802970     0.66200
H1928       H  0.87774876  0.60465265  0.10481294     0.15100
H1929       H  0.91477222  0.58101971  0.19022061     0.14800
N1930       N  0.87650370  0.55111472  0.17761383     0.73900
O1931       O  0.93330933  0.62918755  0.10107948    -0.39500
O1932       O  0.90342925  0.65536311  0.11534954    -0.39500
O1933       O  0.89158146  0.53227068  0.18214311    -0.40200
O1934       O  0.85840999  0.55546725  0.19344340    -0.40200
C1935       C  0.91095860  0.50151231  0.13631193    -0.12500
C1936       C  0.89124517  0.48631871  0.14689472     0.04500
C1937       C  0.89480809  0.47250997  0.16999042    -0.07800
C1938       C  0.91865859  0.47382398  0.18235955    -0.08600
C1939       C  0.93869553  0.48915426  0.17187631    -0.03100
C1940       C  0.93467228  0.50325459  0.14874551     0.03700
N1941       N  0.95361901  0.52054024  0.13834674     0.66200
H1942       H  0.90757752  0.51280487  0.11878700     0.15100
H1943       H  0.92181012  0.46228914  0.19974713     0.14800
N1944       N  0.87442979  0.45692134  0.18052572     0.73900
O1945       O  0.96542951  0.51390162  0.11799226    -0.39500
O1946       O  0.95151268  0.54451049  0.14339997    -0.39500
O1947       O  0.86725433  0.43689443  0.16840071    -0.40200
O1948       O  0.85936139  0.46690498  0.19701098    -0.40200
C1949       C  0.75660984  0.63444369  0.55142621    -0.12500
C1950       C  0.76097907  0.60969521  0.54082012     0.04500
C1951       C  0.77781113  0.60754887  0.51923648    -0.07800
C1952       C  0.78977018  0.62971038  0.50893035    -0.08600
C1953       C  0.78510501  0.65440624  0.51926238    -0.03100
C1954       C  0.76813376  0.65674740  0.54065821     0.03700
N1955       N  0.76293764  0.68139058  0.55232238     0.66200
H1956       H  0.74383710  0.63660104  0.56795856     0.15100
H1957       H  0.80269594  0.62758659  0.49249798     0.14800
N1958       N  0.78389695  0.58294217  0.50797974     0.73900
O1959       O  0.74227425  0.69319409  0.54645219    -0.39500
O1960       O  0.77395695  0.68677481  0.57344105    -0.39500
O1961       O  0.77369379  0.57713032  0.48659774    -0.40200
O1962       O  0.80448226  0.57152215  0.51476227    -0.40200
C1963       C  0.63334348  0.60043364  0.49143827    -0.12500
C1964       C  0.65039875  0.62068766  0.49807132     0.04500
C1965       C  0.67566871  0.61446620  0.50626717    -0.07800
C1966       C  0.68287328  0.58837256  0.50829409    -0.08600
C1967       C  0.66454170  0.56855708  0.50545199    -0.03100
C1968       C  0.63965012  0.57460085  0.49646262     0.03700
N1969       N  0.61983127  0.55538173  0.49457149     0.66200
H1970       H  0.61388494  0.60463030  0.48475041     0.15100
H1971       H  0.70175487  0.58382910  0.51614367     0.14800
N1972       N  0.69253337  0.63356562  0.51705420     0.73900
O1973       O  0.60425022  0.55282947  0.51325855    -0.39500
O1974       O  0.61279953  0.54814906  0.47232860    -0.39500
O1975       O  0.69156167  0.63758481  0.54116397    -0.40200
O1976       O  0.71284388  0.63958766  0.50490156    -0.40200
C1977       C  0.63937390  0.62577439  0.42401739    -0.12500
C1978       C  0.64145942  0.65185858  0.41585404     0.04500
C1979       C  0.65701201  0.65713640  0.39391633    -0.07800
C1980       C  0.67092656  0.63690727  0.38165170    -0.08600
C1981       C  0.67015035  0.61098173  0.39077339    -0.03100
C1982       C  0.65357763  0.60555627  0.41204774     0.03700
N1983       N  0.65036994  0.57960584  0.42157775     0.66200
H1984       H  0.62713288  0.62110203  0.44041175     0.15100
H1985       H  0.68303265  0.64176847  0.36517542     0.14800
N1986       N  0.65792482  0.68265982  0.38287636     0.73900
O1987       O  0.66390972  0.57204761  0.44053530    -0.39500
O1988       O  0.62967741  0.56771192  0.41648350    -0.39500
O1989       O  0.67723777  0.69684859  0.38741784    -0.40200
O1990       O  0.64407537  0.68761428  0.36330940    -0.40200
C1991       C  0.90524850  0.46345426  0.30015869    -0.12500
C1992       C  0.91814450  0.47682935  0.28031587     0.04500
C1993       C  0.90835777  0.50122026  0.27216878    -0.07800
C1994       C  0.88525939  0.51103549  0.28298870    -0.08600
C1995       C  0.87232861  0.49775399  0.30317041    -0.03100
C1996       C  0.88298419  0.47373729  0.31192336     0.03700
N1997       N  0.87097737  0.45856823  0.33179291     0.66200
H1998       H  0.91253213  0.44468188  0.30667339     0.15100
H1999       H  0.87753200  0.52930118  0.27573330     0.14800
N2000       N  0.92118310  0.51572383  0.25226441     0.73900
O2001       O  0.85698753  0.43965625  0.32510122    -0.39500
O2002       O  0.88148152  0.45790038  0.35386704    -0.39500
O2003       O  0.91779874  0.50950226  0.22891557    -0.40200
O2004       O  0.94013967  0.52996278  0.25809253    -0.40200
C2005       C  0.73421771  0.52956847  0.23750575    -0.12500
C2006       C  0.73828798  0.50337208  0.24518198     0.04500
C2007       C  0.74243152  0.48556698  0.22438781    -0.07800
C2008       C  0.74249925  0.49408123  0.19798546    -0.08600
C2009       C  0.74009468  0.52048226  0.19054723    -0.03100
C2010       C  0.73539769  0.53821703  0.21117520     0.03700
N2011       N  0.73300324  0.56551007  0.20626558     0.66200
H2012       H  0.73309561  0.54427640  0.25240243     0.15100
H2013       H  0.74703847  0.47998316  0.18316632     0.14800
N2014       N  0.74887203  0.45893940  0.22941474     0.73900
O2015       O  0.71058973  0.57533534  0.20555301    -0.39500
O2016       O  0.75185520  0.58007133  0.21162318    -0.39500
O2017       O  0.73168496  0.44191140  0.22594731    -0.40200
O2018       O  0.77233240  0.45212437  0.22818181    -0.40200
C2019       C  0.78192674  0.49180882  0.44910136    -0.12500
C2020       C  0.75721860  0.48371467  0.44100716     0.04500
C2021       C  0.74189138  0.47152856  0.46055477    -0.07800
C2022       C  0.75050470  0.46993988  0.48689553    -0.08600
C2023       C  0.77415813  0.48063193  0.49549128    -0.03100
C2024       C  0.79026117  0.49085835  0.47541931     0.03700
N2025       N  0.81446579  0.50267182  0.48141726     0.66200
H2026       H  0.79418412  0.50144475  0.43511108     0.15100
H2027       H  0.73674743  0.46350277  0.50128154     0.14800
N2028       N  0.71670949  0.46192821  0.45476634     0.73900
O2029       O  0.83493368  0.48994982  0.47699242    -0.39500
O2030       O  0.81563353  0.52721890  0.48209533    -0.39500
O2031       O  0.71374236  0.43758064  0.45314588    -0.40200
O2032       O  0.69734095  0.47592614  0.46020088    -0.40200
C2033       C  0.73544293  0.67154988  0.37948356    -0.12500
C2034       C  0.73524906  0.65025194  0.39705159     0.04500
C2035       C  0.73038304  0.65535141  0.42346335    -0.07800
C2036       C  0.73377254  0.68063766  0.43254032    -0.08600
C2037       C  0.74147465  0.70033012  0.41537137    -0.03100
C2038       C  0.73790555  0.69688130  0.38888091     0.03700
N2039       N  0.73813825  0.71895059  0.37187662     0.66200
H2040       H  0.73595540  0.66844083  0.35872349     0.15100
H2041       H  0.73464285  0.68371667  0.45330319     0.14800
N2042       N  0.72489896  0.63516925  0.44174299     0.73900
O2043       O  0.75892032  0.72542546  0.36082530    -0.39500
O2044       O  0.72014810  0.73555755  0.37374802    -0.39500
O2045       O  0.70184105  0.63253800  0.44934741    -0.40200
O2046       O  0.74298870  0.62666585  0.45589842    -0.40200
C2047       C  0.86563988  0.58276558  0.28798894    -0.12500
C2048       C  0.84348910  0.58995771  0.27412897     0.04500
C2049       C  0.84517943  0.59591334  0.24757693    -0.07800
C2050       C  0.86946707  0.59736650  0.23611407    -0.08600
C2051       C  0.89190703  0.59306821  0.25081163    -0.03100
C2052       C  0.88992494  0.58436122  0.27669752     0.03700
N2053       N  0.91198753  0.58099806  0.29309734     0.66200
H2054       H  0.86422782  0.57701524  0.30821245     0.15100
H2055       H  0.87091362  0.60428309  0.21625761     0.14800
N2056       N  0.82295697  0.60302475  0.23264636     0.73900
O2057       O  0.91773668  0.59924303  0.30832365    -0.39500
O2058       O  0.91877655  0.55813833  0.29918595    -0.39500
O2059       O  0.81867693  0.62686459  0.22815360    -0.40200
O2060       O  0.81301378  0.58623752  0.21794551    -0.40200
C2061       C  0.77279049  0.55091042  0.95794326    -0.12500
C2062       C  0.75572455  0.53903213  0.94001235     0.04500
C2063       C  0.73141686  0.53132413  0.95064297    -0.07800
C2064       C  0.72544190  0.53414088  0.97735343    -0.08600
C2065       C  0.74311616  0.54379620  0.99551269    -0.03100
C2066       C  0.76648741  0.55367439  0.98496482     0.03700
N2067       N  0.78537886  0.56371700  0.00214128     0.66200
H2068       H  0.79195040  0.55636987  0.95142905     0.15100
H2069       H  0.70757079  0.52572216  0.98447144     0.14800
N2070       N  0.71349497  0.51682357  0.93573731     0.73900
O2071       O  0.80147769  0.54815532  0.01216060    -0.39500
O2072       O  0.78127615  0.58549991  0.01264179    -0.39500
O2073       O  0.71284787  0.49251835  0.93957787    -0.40200
O2074       O  0.69303554  0.52825642  0.92857815    -0.40200
C2075       C  0.76082454  0.54440816  0.72722705    -0.12500
C2076       C  0.77797697  0.53091907  0.74369652     0.04500
C2077       C  0.79345631  0.51151784  0.73109569    -0.07800
C2078       C  0.78954039  0.50470218  0.70438222    -0.08600
C2079       C  0.77026113  0.51657493  0.68896549    -0.03100
C2080       C  0.75664325  0.53749497  0.70100252     0.03700
N2081       N  0.73741151  0.55192992  0.68734619     0.66200
H2082       H  0.74828417  0.55915053  0.73559189     0.15100
H2083       H  0.80056500  0.48868636  0.69628258     0.14800
N2084       N  0.81241367  0.49716422  0.74512123     0.73900
O2085       O  0.71434327  0.54402346  0.68831308    -0.39500
O2086       O  0.74148148  0.57590243  0.68362693    -0.39500
O2087       O  0.80801054  0.47347496  0.75003676    -0.40200
O2088       O  0.83558753  0.50460175  0.74335153    -0.40200
C2089       C  0.21813622  0.09053048  0.99410376    -0.12500
C2090       C  0.23994485  0.09453802  0.97838539     0.04500
C2091       C  0.24935004  0.12022721  0.97536522    -0.07800
C2092       C  0.23722625  0.14091310  0.98835809    -0.08600
C2093       C  0.21511622  0.13702591  0.00376402    -0.03100
C2094       C  0.20530811  0.11139405  0.00619087     0.03700
N2095       N  0.18234411  0.10593279  0.02060825     0.66200
H2096       H  0.21047523  0.07101634  0.99645519     0.15100
H2097       H  0.24492022  0.16039466  0.98582636     0.14800
N2098       N  0.27156249  0.12582515  0.95984694     0.73900
O2099       O  0.16113650  0.10488852  0.00858920    -0.39500
O2100       O  0.18431888  0.09398255  0.04193208    -0.39500
O2101       O  0.26818023  0.13404501  0.93699238    -0.40200
O2102       O  0.29262821  0.13083427  0.97109587    -0.40200
C2103       C  0.09576250  0.34305806  0.10560414    -0.12500
C2104       C  0.12277459  0.34154251  0.10580167     0.04500
C2105       C  0.13592966  0.35490854  0.12607779    -0.07800
C2106       C  0.12187172  0.36867769  0.14523834    -0.08600
C2107       C  0.09477675  0.36907061  0.14527035    -0.03100
C2108       C  0.08199360  0.35626521  0.12485460     0.03700
N2109       N  0.05470668  0.35671656  0.12267950     0.66200
H2110       H  0.08479079  0.33328570  0.09064955     0.15100
H2111       H  0.13223772  0.37836742  0.16066777     0.14800
N2112       N  0.16341704  0.35422870  0.12832162     0.73900
O2113       O  0.04508809  0.37059451  0.10485522    -0.39500
O2114       O  0.04255668  0.33687757  0.13038897    -0.39500
O2115       O  0.17614929  0.37368083  0.12050992    -0.40200
O2116       O  0.17343812  0.33920972  0.14500062    -0.40200
C2117       C  0.23335141  0.15206800  0.08241228    -0.12500
C2118       C  0.24190693  0.17344775  0.09687540     0.04500
C2119       C  0.26573046  0.17214044  0.10988727    -0.07800
C2120       C  0.27923823  0.14865587  0.11044775    -0.08600
C2121       C  0.26935597  0.12642954  0.09825452    -0.03100
C2122       C  0.24732896  0.12876354  0.08245179     0.03700
N2123       N  0.23802909  0.10716155  0.06792746     0.66200
H2124       H  0.21564432  0.15343088  0.07123834     0.15100
H2125       H  0.29645952  0.14727448  0.12235161     0.14800
N2126       N  0.27549089  0.19354640  0.12444075     0.73900
O2127       O  0.22124396  0.09242254  0.07789813    -0.39500
O2128       O  0.25088138  0.09930334  0.04866919    -0.39500
O2129       O  0.27422369  0.19247462  0.14886310    -0.40200
O2130       O  0.29221732  0.20809656  0.11406733    -0.40200
C2131       C  0.06559834  0.27494551  0.16798487    -0.12500
C2132       C  0.08239991  0.27527382  0.18930119     0.04500
C2133       C  0.10815527  0.28289380  0.18548199    -0.07800
C2134       C  0.11810646  0.28317614  0.16046220    -0.08600
C2135       C  0.10290002  0.27468856  0.13963162    -0.03100
C2136       C  0.07577496  0.27321927  0.14294625     0.03700
N2137       N  0.05889901  0.26551810  0.12246406     0.66200
H2138       H  0.04536749  0.27011383  0.17082999     0.15100
H2139       H  0.13863147  0.28667633  0.15794883     0.14800
N2140       N  0.12544027  0.28616254  0.20676185     0.73900
O2141       O  0.05308042  0.24174916  0.12044203    -0.39500
O2142       O  0.04430735  0.28241157  0.11218080    -0.39500
O2143       O  0.14066799  0.26776665  0.21260003    -0.40200
O2144       O  0.13107127  0.30902010  0.21361732    -0.40200
C2145       C  0.35221326  0.11728002  0.11999658    -0.12500
C2146       C  0.35627006  0.09115734  0.11294036     0.04500
C2147       C  0.37377088  0.08598519  0.09250241    -0.07800
C2148       C  0.38601433  0.10673526  0.07928425    -0.08600
C2149       C  0.38107687  0.13293295  0.08569527    -0.03100
C2150       C  0.36414960  0.13797585  0.10665831     0.03700
N2151       N  0.35937888  0.16390843  0.11538958     0.66200
H2152       H  0.33906049  0.12180348  0.13574293     0.15100
H2153       H  0.39916190  0.10229471  0.06351659     0.14800
N2154       N  0.38062188  0.05989991  0.08584462     0.73900
O2155       O  0.33925474  0.17556792  0.10769081    -0.39500
O2156       O  0.37007373  0.17135187  0.13604212    -0.39500
O2157       O  0.37235779  0.05056568  0.06487036    -0.40200
O2158       O  0.40042276  0.04984835  0.09620120    -0.40200
C2159       C  0.27817243  0.27404654  0.01976879    -0.12500
C2160       C  0.26856068  0.26780223  0.99488324     0.04500
C2161       C  0.28770308  0.26165033  0.97604954    -0.07800
C2162       C  0.31446518  0.26031066  0.98264209    -0.08600
C2163       C  0.32376272  0.26400303  0.00810866    -0.03100
C2164       C  0.30489145  0.27193088  0.02657936     0.03700
N2165       N  0.31195135  0.27647040  0.05290697     0.66200
H2166       H  0.26440637  0.27775356  0.03512824     0.15100
H2167       H  0.32797847  0.25397924  0.96792101     0.14800
N2168       N  0.28040198  0.25462272  0.95036376     0.73900
O2169       O  0.31525528  0.29968842  0.06012058    -0.39500
O2170       O  0.30665850  0.25937429  0.06974741    -0.39500
O2171       O  0.28234861  0.27150874  0.93259909    -0.40200
O2172       O  0.28042609  0.23081618  0.94431809    -0.40200
C2173       C  0.37404612  0.05225117  0.00311686    -0.12500
C2174       C  0.34740719  0.05200104  0.00769775     0.04500
C2175       C  0.33564214  0.07437418  0.01857919    -0.07800
C2176       C  0.34912168  0.09775385  0.01880077    -0.08600
C2177       C  0.37413531  0.09911400  0.00860038    -0.03100
C2178       C  0.38742651  0.07561075  0.00274012     0.03700
N2179       N  0.41362638  0.07496006  0.99391958     0.66200
H2180       H  0.38397856  0.03489271  0.99639169     0.15100
H2181       H  0.33928173  0.11516341  0.02552208     0.14800
N2182       N  0.30976213  0.07439278  0.02818753     0.73900
O2183       O  0.43102501  0.06804154  0.00968932    -0.39500
O2184       O  0.41789020  0.07269089  0.96993581    -0.39500
O2185       O  0.29197050  0.08287993  0.01366652    -0.40200
O2186       O  0.30657148  0.07544254  0.05239968    -0.40200
C2187       C  0.72834007  0.35198918  0.04068726    -0.12500
C2188       C  0.71502672  0.35418956  0.01717733     0.04500
C2189       C  0.71145402  0.37924770  0.00622366    -0.07800
C2190       C  0.72201833  0.40123803  0.01833443    -0.08600
C2191       C  0.73515190  0.39923433  0.04210765    -0.03100
C2192       C  0.73780896  0.37404910  0.05351282     0.03700
N2193       N  0.74976404  0.37015453  0.07818440     0.66200
H2194       H  0.73083199  0.33295403  0.04960572     0.15100
H2195       H  0.71938369  0.42015409  0.00923900     0.14800
N2196       N  0.69709922  0.38290365  0.98284430     0.73900
O2197       O  0.73539439  0.36732434  0.09778593    -0.39500
O2198       O  0.77245953  0.36103045  0.07894200    -0.39500
O2199       O  0.67484235  0.39301189  0.98414232    -0.40200
O2200       O  0.70901778  0.38339205  0.96150566    -0.40200
C2201       C  0.56636910  0.26094602  0.02525461    -0.12500
C2202       C  0.57368154  0.23452368  0.02276142     0.04500
C2203       C  0.55321402  0.21621086  0.02530258    -0.07800
C2204       C  0.52702104  0.22442840  0.02893468    -0.08600
C2205       C  0.51928234  0.25091819  0.02892071    -0.03100
C2206       C  0.53999807  0.26921365  0.02745380     0.03700
N2207       N  0.53481174  0.29652731  0.02608449     0.66200
H2208       H  0.58111756  0.27569865  0.02295954     0.15100
H2209       H  0.51215773  0.20965724  0.02815384     0.14800
N2210       N  0.55810672  0.18897852  0.02232402     0.73900
O2211       O  0.53750752  0.30989785  0.04636563    -0.39500
O2212       O  0.53637860  0.30781052  0.00434244    -0.39500
O2213       O  0.55807575  0.17466183  0.04228491    -0.40200
O2214       O  0.55426614  0.17865367  0.00051570    -0.40200
C2215       C  0.76345643  0.35730848  0.88308313    -0.12500
C2216       C  0.76791118  0.37728403  0.90077309     0.04500
C2217       C  0.76799610  0.37191492  0.92746417    -0.07800
C2218       C  0.76051814  0.34719775  0.93609565    -0.08600
C2219       C  0.75294419  0.32813638  0.91808243    -0.03100
C2220       C  0.75578108  0.33298247  0.89135640     0.03700
N2221       N  0.74955323  0.31415536  0.87206802     0.66200
H2222       H  0.76423185  0.36086042  0.86240966     0.15100
H2223       H  0.75884077  0.34356101  0.95674951     0.14800
N2224       N  0.77576529  0.39131741  0.94560150     0.73900
O2225       O  0.76795111  0.30185714  0.86158538    -0.39500
O2226       O  0.72887048  0.31723514  0.85939754    -0.39500
O2227       O  0.79859662  0.39978448  0.94446408    -0.40200
O2228       O  0.75875390  0.40474559  0.95699563    -0.40200
C2229       C  0.83631540  0.38246931  0.88816145    -0.12500
C2230       C  0.84803548  0.40698057  0.89037247     0.04500
C2231       C  0.87293105  0.40788184  0.90176615    -0.07800
C2232       C  0.88451614  0.38487159  0.91180933    -0.08600
C2233       C  0.87197046  0.36049596  0.91082389    -0.03100
C2234       C  0.84760393  0.35963636  0.89835456     0.03700
N2235       N  0.83415191  0.33566706  0.89494898     0.66200
H2236       H  0.81805569  0.38084464  0.87817025     0.15100
H2237       H  0.90335637  0.38625781  0.92088815     0.14800
N2238       N  0.88753432  0.43142431  0.90199850     0.73900
O2239       O  0.81639294  0.32989449  0.91070853    -0.39500
O2240       O  0.83404906  0.32540262  0.87276598    -0.39500
O2241       O  0.89026434  0.44332284  0.92315628    -0.40200
O2242       O  0.90388539  0.43514447  0.88418968    -0.40200
C2243       C  0.95721708  0.24895414  0.12576653    -0.12500
C2244       C  0.96676942  0.24130053  0.10148663     0.04500
C2245       C  0.98776431  0.22347820  0.10080201    -0.07800
C2246       C  0.99829778  0.21356603  0.12390389    -0.08600
C2247       C  0.98903150  0.22153056  0.14814561    -0.03100
C2248       C  0.96826722  0.23956133  0.14892115     0.03700
N2249       N  0.95731068  0.24774701  0.17295940     0.66200
H2250       H  0.94125720  0.26268387  0.12682262     0.15100
H2251       H  0.01418355  0.19973735  0.12282014     0.14800
N2252       N  0.99827168  0.21442489  0.07690563     0.73900
O2253       O  0.96527784  0.26852479  0.18312525    -0.39500
O2254       O  0.93551017  0.23896308  0.17958667    -0.39500
O2255       O  0.01986493  0.22321733  0.06961108    -0.40200
O2256       O  0.99085488  0.19267665  0.06840166    -0.40200
C2257       C  0.02966175  0.25713478  0.96559806    -0.12500
C2258       C  0.01897207  0.23406602  0.97662996     0.04500
C2259       C  0.03735264  0.21632035  0.98745691    -0.07800
C2260       C  0.06416879  0.22232596  0.98843452    -0.08600
C2261       C  0.07423960  0.24630535  0.97986919    -0.03100
C2262       C  0.05658212  0.26343456  0.96764340     0.03700
N2263       N  0.06557125  0.28841599  0.95940624     0.66200
H2264       H  0.01664864  0.27174316  0.95776948     0.15100
H2265       H  0.07693916  0.20897685  0.99849751     0.14800
N2266       N  0.02914002  0.19293051  0.00001179     0.73900
O2267       O  0.07941516  0.28976984  0.93928651    -0.39500
O2268       O  0.06697670  0.30646161  0.97588322    -0.39500
O2269       O  0.03433630  0.17144035  0.98937276    -0.40200
O2270       O  0.02573963  0.19329222  0.02420871    -0.40200
C2271       C  0.81524441  0.22819455  0.02434144    -0.12500
C2272       C  0.82337091  0.21868726  0.00008413     0.04500
C2273       C  0.80365965  0.20611461  0.98534639    -0.07800
C2274       C  0.77750782  0.20461839  0.99453236    -0.08600
C2275       C  0.76893642  0.21746338  0.01709366    -0.03100
C2276       C  0.78894295  0.22855029  0.03250800     0.03700
N2277       N  0.78302336  0.24211741  0.05589598     0.66200
H2278       H  0.82919677  0.23824568  0.03608159     0.15100
H2279       H  0.76308885  0.19619372  0.98211529     0.14800
N2280       N  0.80890339  0.19654965  0.95996343     0.73900
O2281       O  0.78877176  0.23138214  0.07720886    -0.39500
O2282       O  0.78099672  0.26663706  0.05505684    -0.39500
O2283       O  0.80937954  0.17219825  0.95660517    -0.40200
O2284       O  0.80405397  0.21116149  0.94080378    -0.40200
C2285       C  0.84515063  0.39584901  0.97645290    -0.12500
C2286       C  0.83595026  0.37300829  0.98829758     0.04500
C2287       C  0.81467868  0.37432852  0.00524260    -0.07800
C2288       C  0.80676253  0.39861309  0.01421718    -0.08600
C2289       C  0.81942925  0.42122408  0.00592630    -0.03100
C2290       C  0.83702301  0.42013432  0.98523811     0.03700
N2291       N  0.84901831  0.44300632  0.97505551     0.66200
H2292       H  0.86096256  0.39488049  0.96266547     0.15100
H2293       H  0.79259009  0.39957623  0.02968746     0.14800
N2294       N  0.80368014  0.35148656  0.01660558     0.73900
O2295       O  0.87120569  0.44913306  0.98311662    -0.39500
O2296       O  0.84150486  0.45169741  0.95339791    -0.39500
O2297       O  0.81189396  0.34370027  0.03834705    -0.40200
O2298       O  0.78171935  0.34412122  0.00897714    -0.40200
C2299       C  0.99095581  0.38184665  0.10475912    -0.12500
C2300       C  0.99208619  0.36446825  0.12598622     0.04500
C2301       C  0.98445465  0.33838228  0.12245274    -0.07800
C2302       C  0.97755079  0.33008173  0.09785922    -0.08600
C2303       C  0.97667309  0.34751440  0.07688005    -0.03100
C2304       C  0.98281580  0.37380354  0.08049870     0.03700
N2305       N  0.98123852  0.39258756  0.06000785     0.66200
H2306       H  0.99702519  0.40185987  0.10660550     0.15100
H2307       H  0.97160554  0.30997463  0.09542427     0.14800
N2308       N  0.98221128  0.32029708  0.14343779     0.73900
O2309       O  0.96079273  0.40595190  0.05784187    -0.39500
O2310       O  0.00196941  0.40152696  0.05063639    -0.39500
O2311       O  0.95991109  0.31581961  0.15232954    -0.40200
O2312       O  0.99963028  0.30324134  0.14644405    -0.40200
C2313       C  0.63308227  0.54535887  0.75495308    -0.12500
C2314       C  0.60900149  0.53472043  0.76168409     0.04500
C2315       C  0.60827983  0.51522337  0.78120648    -0.07800
C2316       C  0.63119233  0.50751110  0.79381587    -0.08600
C2317       C  0.65531764  0.51777863  0.78661569    -0.03100
C2318       C  0.65605270  0.53688137  0.76679592     0.03700
N2319       N  0.67977911  0.54859490  0.75884475     0.66200
H2320       H  0.63417171  0.56033628  0.74008862     0.15100
H2321       H  0.63019280  0.49265842  0.80880972     0.14800
N2322       N  0.58456734  0.50342331  0.78911976     0.73900
O2323       O  0.69115896  0.53969793  0.73912428    -0.39500
O2324       O  0.68450063  0.57161708  0.76588120    -0.39500
O2325       O  0.57909554  0.48115117  0.78045473    -0.40200
O2326       O  0.57421879  0.51079273  0.81001584    -0.40200
C2327       C  0.42122186  0.62897745  0.62143530    -0.12500
C2328       C  0.41539200  0.63508175  0.64737667     0.04500
C2329       C  0.39628162  0.65438301  0.65186219    -0.07800
C2330       C  0.38344613  0.66659045  0.63085530    -0.08600
C2331       C  0.38976053  0.66100369  0.60490175    -0.03100
C2332       C  0.40920700  0.64200375  0.60041903     0.03700
N2333       N  0.41695515  0.63528250  0.57474272     0.66200
H2334       H  0.43596610  0.61447708  0.61735372     0.15100
H2335       H  0.36876106  0.68114481  0.63494699     0.14800
N2336       N  0.38894787  0.66139435  0.67757631     0.73900
O2337       O  0.43691513  0.64583364  0.56537805    -0.39500
O2338       O  0.40943406  0.61389826  0.56546439    -0.39500
O2339       O  0.39860109  0.68157362  0.68748181    -0.40200
O2340       O  0.36805231  0.65258346  0.68667637    -0.40200
C2341       C  0.58019979  0.48266718  0.66875610    -0.12500
C2342       C  0.56305008  0.49554913  0.65185885     0.04500
C2343       C  0.56862023  0.49662460  0.62534298    -0.07800
C2344       C  0.59354064  0.49043404  0.61718605    -0.08600
C2345       C  0.61267065  0.48290028  0.63529318    -0.03100
C2346       C  0.60527467  0.47701315  0.66090454     0.03700
N2347       N  0.62304039  0.46713330  0.67975301     0.66200
H2348       H  0.57562756  0.48035357  0.68915010     0.15100
H2349       H  0.59828599  0.49329370  0.59691979     0.14800
N2350       N  0.54996362  0.50645080  0.60721555     0.73900
O2351       O  0.63193070  0.48273061  0.69632873    -0.39500
O2352       O  0.62211807  0.44318546  0.68539911    -0.39500
O2353       O  0.55505531  0.52646398  0.59385446    -0.40200
O2354       O  0.52706645  0.49798467  0.60783257    -0.40200
C2355       C  0.49335678  0.67785392  0.58166728    -0.12500
C2356       C  0.50561247  0.66191523  0.56328197     0.04500
C2357       C  0.50489684  0.63468945  0.56663122    -0.07800
C2358       C  0.49644844  0.62454905  0.59008724    -0.08600
C2359       C  0.49023725  0.64103841  0.61083108    -0.03100
C2360       C  0.48645628  0.66777546  0.60580129     0.03700
N2361       N  0.47715893  0.68530182  0.62503974     0.66200
H2362       H  0.49247511  0.69881774  0.57895831     0.15100
H2363       H  0.49764535  0.60365467  0.59272221     0.14800
N2364       N  0.51473692  0.61700100  0.54771256     0.73900
O2365       O  0.49315917  0.70021486  0.63587124    -0.39500
O2366       O  0.45367967  0.69204096  0.62416229    -0.39500
O2367       O  0.53610891  0.60590130  0.55218277    -0.40200
O2368       O  0.49871159  0.60560926  0.53326961    -0.40200
C2369       C  0.61210901  0.39098966  0.63762710    -0.12500
C2370       C  0.61911413  0.37516386  0.65873777     0.04500
C2371       C  0.64582499  0.37340658  0.66495794    -0.07800
C2372       C  0.66397465  0.38965980  0.65237575    -0.08600
C2373       C  0.65686403  0.40589394  0.63155644    -0.03100
C2374       C  0.63069133  0.40502294  0.62322733     0.03700
N2375       N  0.62250230  0.41743658  0.59979376     0.66200
H2376       H  0.59197901  0.39199375  0.63181850     0.15100
H2377       H  0.68402358  0.38899342  0.65850167     0.14800
N2378       N  0.65530040  0.35480169  0.68329738     0.73900
O2379       O  0.62348561  0.40443127  0.57911620    -0.39500
O2380       O  0.60664484  0.43610645  0.60113036    -0.39500
O2381       O  0.66338903  0.33320342  0.67485356    -0.40200
O2382       O  0.66440200  0.36303548  0.70434284    -0.40200
C2383       C  0.45224568  0.25620476  0.86800802    -0.12500
C2384       C  0.46676197  0.25755432  0.89109042     0.04500
C2385       C  0.49174425  0.26886258  0.88971561    -0.07800
C2386       C  0.50110755  0.27870591  0.86619606    -0.08600
C2387       C  0.48684735  0.27701088  0.84323543    -0.03100
C2388       C  0.46207058  0.26552195  0.84422095     0.03700
N2389       N  0.44619833  0.26376963  0.82165776     0.66200
H2390       H  0.43319355  0.24747859  0.86824588     0.15100
H2391       H  0.52017356  0.28747056  0.86582951     0.14800
N2392       N  0.50820033  0.27084157  0.91180868     0.73900
O2393       O  0.44441118  0.24211314  0.81031575    -0.39500
O2394       O  0.42843592  0.28042322  0.81847801    -0.39500
O2395       O  0.52749786  0.25575390  0.91320891    -0.40200
O2396       O  0.50899873  0.29227028  0.92368622    -0.40200
C2397       C  0.47314735  0.44675381  0.73336658    -0.12500
C2398       C  0.48844720  0.43046241  0.74927857     0.04500
C2399       C  0.49652260  0.44172086  0.77310106    -0.07800
C2400       C  0.49101367  0.46799902  0.77952554    -0.08600
C2401       C  0.47821439  0.48528179  0.76261713    -0.03100
C2402       C  0.46810231  0.47353671  0.73966592     0.03700
N2403       N  0.45394979  0.48864447  0.72136533     0.66200
H2404       H  0.46661641  0.43935178  0.71487015     0.15100
H2405       H  0.49956465  0.47578236  0.79703738     0.14800
N2406       N  0.51194581  0.42736671  0.79095908     0.73900
O2407       O  0.46558721  0.49687501  0.70147854    -0.39500
O2408       O  0.42985137  0.48510011  0.72017803    -0.39500
O2409       O  0.53587802  0.43212425  0.79161574    -0.40200
O2410       O  0.50105202  0.41908669  0.81126500    -0.40200
C2411       C  0.64849071  0.40941244  0.74764267    -0.12500
C2412       C  0.64714529  0.38281884  0.75337478     0.04500
C2413       C  0.66944073  0.36986876  0.76299808    -0.07800
C2414       C  0.69170943  0.38398618  0.76801771    -0.08600
C2415       C  0.69206555  0.41109353  0.76511189    -0.03100
C2416       C  0.67049425  0.42368475  0.75358766     0.03700
N2417       N  0.66921218  0.45120691  0.75008407     0.66200
H2418       H  0.63194542  0.41958967  0.73948076     0.15100
H2419       H  0.70813151  0.37374678  0.77635584     0.14800
N2420       N  0.66959338  0.34284135  0.76971942     0.73900
O2421       O  0.67418079  0.46050868  0.72799743    -0.39500
O2422       O  0.65492285  0.46409476  0.76513750    -0.39500
O2423       O  0.68145647  0.32719172  0.75507780    -0.40200
O2424       O  0.66619670  0.33656363  0.79316143    -0.40200
C2425       C  0.62126683  0.24751272  0.81121441    -0.12500
C2426       C  0.59449211  0.24428970  0.81001853     0.04500
C2427       C  0.58118007  0.23618582  0.83249757    -0.07800
C2428       C  0.59365878  0.23627654  0.85633885    -0.08600
C2429       C  0.61955672  0.24371016  0.85806685    -0.03100
C2430       C  0.63393538  0.24739291  0.83488464     0.03700
N2431       N  0.66119693  0.25179868  0.83465783     0.66200
H2432       H  0.63230510  0.25233140  0.79397863     0.15100
H2433       H  0.58270008  0.23121843  0.87355882     0.14800
N2434       N  0.55553792  0.22639247  0.83138355     0.73900
O2435       O  0.66922304  0.27469907  0.83078858    -0.39500
O2436       O  0.67595379  0.23291236  0.82930720    -0.39500
O2437       O  0.55289674  0.20205408  0.83008425    -0.40200
O2438       O  0.53731418  0.23990262  0.84055060    -0.40200
C2439       C  0.60146678  0.12487049  0.87550808    -0.12500
C2440       C  0.60168808  0.13514875  0.85012269     0.04500
C2441       C  0.61741076  0.15725393  0.84541814    -0.07800
C2442       C  0.63054173  0.16952692  0.86601771    -0.08600
C2443       C  0.62899333  0.16014799  0.89164234    -0.03100
C2444       C  0.61496704  0.13689702  0.89600985     0.03700
N2445       N  0.61550336  0.12416522  0.92067094     0.66200
H2446       H  0.59032308  0.10749514  0.87967923     0.15100
H2447       H  0.64174271  0.18689594  0.86195176     0.14800
N2448       N  0.62160092  0.16669846  0.81968815     0.73900
O2449       O  0.59565251  0.12505431  0.93485867    -0.39500
O2450       O  0.63170491  0.10602854  0.92424770    -0.39500
O2451       O  0.60759390  0.18496864  0.81112821    -0.40200
O2452       O  0.64311468  0.16227711  0.80895283    -0.40200
C2453       C  0.38298151  0.03165808  0.76449943    -0.12500
C2454       C  0.39953580  0.04395480  0.74679335     0.04500
C2455       C  0.39387090  0.04230530  0.72014853    -0.07800
C2456       C  0.37206911  0.02856376  0.71178316    -0.08600
C2457       C  0.35534962  0.01583199  0.72930118    -0.03100
C2458       C  0.36100280  0.01789455  0.75620914     0.03700
N2459       N  0.34555564  0.00553353  0.77559241     0.66200
H2460       H  0.38734848  0.03243831  0.78504674     0.15100
H2461       H  0.36857070  0.02758716  0.69110268     0.14800
N2462       N  0.41088821  0.05288119  0.70102518     0.73900
O2463       O  0.35375014  0.98449875  0.78537674    -0.39500
O2464       O  0.33042136  0.01950455  0.78884460    -0.39500
O2465       O  0.42705588  0.03785229  0.69036751    -0.40200
O2466       O  0.40428429  0.07354050  0.68936605    -0.40200
C2467       C  0.48053288  0.18946122  0.71519772    -0.12500
C2468       C  0.50645677  0.18150363  0.71140578     0.04500
C2469       C  0.52322783  0.20153652  0.70215004    -0.07800
C2470       C  0.51481428  0.22812896  0.69985419    -0.08600
C2471       C  0.48979573  0.23658347  0.70718600    -0.03100
C2472       C  0.47221257  0.21603623  0.71331429     0.03700
N2473       N  0.44562418  0.22164827  0.71845045     0.66200
H2474       H  0.46671887  0.17512632  0.72173229     0.15100
H2475       H  0.52924647  0.24273752  0.69562406     0.14800
N2476       N  0.54952888  0.19574065  0.69605317     0.73900
O2477       O  0.43800228  0.22251658  0.74167381    -0.39500
O2478       O  0.42928115  0.21721968  0.70085430    -0.39500
O2479       O  0.55585670  0.19408660  0.67248472    -0.40200
O2480       O  0.56680484  0.20062136  0.71257150    -0.40200
C2481       C  0.53364111  0.17036252  0.88580456    -0.12500
C2482       C  0.51654630  0.17637044  0.86565824     0.04500
C2483       C  0.49321563  0.18900920  0.87095173    -0.07800
C2484       C  0.48381317  0.18827757  0.89621396    -0.08600
C2485       C  0.49874325  0.17697094  0.91609825    -0.03100
C2486       C  0.52462251  0.16983610  0.91125286     0.03700
N2487       N  0.54023013  0.15741794  0.93049760     0.66200
H2488       H  0.55194983  0.16094130  0.88142736     0.15100
H2489       H  0.46419808  0.19477574  0.89995133     0.14800
N2490       N  0.47677432  0.19680832  0.85001372     0.73900
O2491       O  0.53957240  0.13287125  0.93218492    -0.39500
O2492       O  0.55996960  0.16920986  0.93864013    -0.39500
O2493       O  0.45762084  0.18278460  0.84430715    -0.40200
O2494       O  0.48557911  0.21233789  0.83317594    -0.40200
C2495       C  0.42834533  0.00557904  0.85606785    -0.12500
C2496       C  0.42703604  0.03217727  0.84946320     0.04500
C2497       C  0.40313574  0.04558577  0.85148397    -0.07800
C2498       C  0.38119712  0.03217335  0.85936572    -0.08600
C2499       C  0.38271959  0.00591268  0.86602367    -0.03100
C2500       C  0.40634742  0.99260318  0.86484911     0.03700
N2501       N  0.40781758  0.96576581  0.87191647     0.66200
H2502       H  0.44642660  0.99492124  0.85444543     0.15100
H2503       H  0.36294970  0.04256321  0.86099330     0.14800
N2504       N  0.40030403  0.07251650  0.84493291     0.73900
O2505       O  0.39816018  0.94918573  0.85686959    -0.39500
O2506       O  0.41134519  0.95975795  0.89539567    -0.39500
O2507       O  0.38913666  0.07835603  0.82393139    -0.40200
O2508       O  0.40012468  0.08892124  0.86308716    -0.40200
C2509       C  0.37244087  0.86857769  0.84376399    -0.12500
C2510       C  0.39820710  0.87293227  0.85142805     0.04500
C2511       C  0.40226886  0.88950570  0.87289171    -0.07800
C2512       C  0.38115333  0.90217571  0.88500859    -0.08600
C2513       C  0.35569163  0.89984044  0.87567522    -0.03100
C2514       C  0.35142362  0.88194237  0.85534571     0.03700
N2515       N  0.32582106  0.87607054  0.84696766     0.66200
H2516       H  0.36859535  0.85528788  0.82798972     0.15100
H2517       H  0.38490559  0.91491835  0.90125016     0.14800
N2518       N  0.42757514  0.89313439  0.88329701     0.73900
O2519       O  0.31610241  0.88895503  0.82849990    -0.39500
O2520       O  0.31615887  0.85430343  0.85297114    -0.39500
O2521       O  0.43976502  0.91369257  0.87781757    -0.40200
O2522       O  0.43419710  0.88008385  0.90302079    -0.40200
C2523       C  0.52151757  0.80318706  0.63240786    -0.12500
C2524       C  0.52488768  0.78946973  0.65602427     0.04500
C2525       C  0.54071377  0.76674588  0.65560511    -0.07800
C2526       C  0.55225369  0.75834783  0.63242533    -0.08600
C2527       C  0.54825993  0.77172521  0.60914825    -0.03100
C2528       C  0.53294326  0.79439720  0.60919459     0.03700
N2529       N  0.52959625  0.80897888  0.58576458     0.66200
H2530       H  0.50970064  0.82067462  0.63184386     0.15100
H2531       H  0.56425026  0.74095285  0.63259698     0.14800
N2532       N  0.54655864  0.75236646  0.67853898     0.73900
O2533       O  0.51163840  0.80274813  0.57047348    -0.39500
O2534       O  0.54830986  0.82221609  0.57720863    -0.39500
O2535       O  0.53535894  0.73080920  0.68203097    -0.40200
O2536       O  0.56842272  0.75586521  0.68878501    -0.40200
C2537       C  0.51877768  0.93769263  0.73630756    -0.12500
C2538       C  0.52612020  0.92964582  0.76136906     0.04500
C2539       C  0.53547052  0.94941543  0.77782100    -0.07800
C2540       C  0.53630513  0.97615784  0.76947691    -0.08600
C2541       C  0.52731076  0.98457108  0.74464969    -0.03100
C2542       C  0.51865441  0.96421815  0.72813545     0.03700
N2543       N  0.50678377  0.97004288  0.70382391     0.66200
H2544       H  0.51035388  0.92343377  0.72357728     0.15100
H2545       H  0.54148109  0.99074409  0.78360286     0.14800
N2546       N  0.54197764  0.94274007  0.80392924     0.73900
O2547       O  0.51985105  0.96660631  0.68344866    -0.39500
O2548       O  0.48242299  0.96919941  0.70238474    -0.39500
O2549       O  0.56275679  0.93042718  0.80812849    -0.40200
O2550       O  0.52417574  0.94173999  0.82066099    -0.40200
C2551       C  0.50387481  0.72245638  0.79715840    -0.12500
C2552       C  0.52487664  0.73327519  0.78321533     0.04500
C2553       C  0.53964817  0.71501446  0.76861550    -0.07800
C2554       C  0.53147508  0.68888991  0.76534551    -0.08600
C2555       C  0.50859598  0.67900839  0.77634354    -0.03100
C2556       C  0.49552374  0.69601048  0.79376540     0.03700
N2557       N  0.47309965  0.68743905  0.80741512     0.66200
H2558       H  0.49225675  0.73526228  0.80886175     0.15100
H2559       H  0.54245627  0.67656331  0.75234680     0.14800
N2560       N  0.56241565  0.72295682  0.75519344     0.73900
O2561       O  0.47562055  0.67997410  0.83062860    -0.39500
O2562       O  0.45110155  0.69475355  0.79959989    -0.39500
O2563       O  0.58408200  0.71785290  0.76530124    -0.40200
O2564       O  0.56120546  0.72588236  0.73097418    -0.40200
C2565       C  0.34501450  0.86663853  0.77582878    -0.12500
C2566       C  0.36594987  0.88385105  0.77812553     0.04500
C2567       C  0.36091305  0.91060371  0.78143977    -0.07800
C2568       C  0.33594584  0.91992075  0.77746645    -0.08600
C2569       C  0.31654496  0.90312016  0.76870207    -0.03100
C2570       C  0.32036155  0.87607178  0.77084862     0.03700
N2571       N  0.29990455  0.85788226  0.76709985     0.66200
H2572       H  0.34790884  0.84570644  0.77556966     0.15100
H2573       H  0.33287535  0.94078777  0.77741711     0.14800
N2574       N  0.38084467  0.92884524  0.78703150     0.73900
O2575       O  0.29951872  0.84487464  0.74642306    -0.39500
O2576       O  0.28915012  0.84842157  0.78697877    -0.39500
O2577       O  0.39073742  0.94168449  0.76862611    -0.40200
O2578       O  0.38201890  0.93793299  0.80963322    -0.40200
C2579       C  0.39027107  0.74526312  0.68952567    -0.12500
C2580       C  0.41664563  0.75000684  0.68840935     0.04500
C2581       C  0.43074105  0.74413985  0.66586242    -0.07800
C2582       C  0.41747206  0.73788703  0.64335155    -0.08600
C2583       C  0.39036644  0.73698652  0.64327654    -0.03100
C2584       C  0.37688853  0.73847180  0.66729192     0.03700
N2585       N  0.34951068  0.73571994  0.66953369     0.66200
H2586       H  0.37963011  0.74903538  0.70726219     0.15100
H2587       H  0.42832861  0.73632667  0.62545324     0.14800
N2588       N  0.45783237  0.74911947  0.66434417     0.73900
O2589       O  0.34070964  0.71365997  0.67580088    -0.39500
O2590       O  0.33632368  0.75571819  0.67499477    -0.39500
O2591       O  0.47351249  0.73327164  0.67464752    -0.40200
O2592       O  0.46535073  0.77175027  0.65848852    -0.40200
loop_ 
_geom_bond_atom_site_label_1 
_geom_bond_atom_site_label_2 
_geom_bond_distance 
_geom_bond_site_symmetry_2 
_ccdc_geom_bond_type 
Zr1           O2   2.440       .  S
Zr1           O3   2.465       .  S
Zr1           O4   2.366       .  S
Zr1           O7   2.370       .  S
Zr1           O9   2.361       .  S
Zr1          O10   2.374       .  S
Zr1          O11   2.419       .  S
Zr1          O12   2.317       .  S
O2           H58   0.989       .  S
O2           H66   0.988       .  S
O3           C23   1.288       .  A
O4           C25   1.269       .  A
O5          Zr15   2.624       .  S
O5           C24   1.315       .  A
O6          Zr14   2.416       .  S
O6           C25   1.281       .  A
O7           C24   1.259       .  A
O8          Zr16   2.450       .  S
O8           C23   1.287       .  A
O9          Zr14   2.390       .  S
O9          Zr16   2.355       .  S
O10         Zr15   2.404       .  S
O10         Zr16   2.402       .  S
O10          H45   0.969       .  S
O11         Zr14   2.394       .  S
O11         Zr31   2.430       .  S
O11          H48   0.963       .  S
O12         Zr15   2.281       .  S
O12         Zr31   2.318       .  S
Zr13         O38   2.441       .  S
Zr13         O32   2.461       .  S
Zr13         O40   2.426       .  S
Zr13         O28   2.424       .  S
Zr13         O19   2.379       .  S
Zr13         O20   2.435       .  S
Zr13         O21   2.361       .  S
Zr13         O22   2.404       .  S
Zr14         O33   2.443       .  S
Zr14         O26   2.438       .  S
Zr14         O27   2.400       .  S
Zr14         O20   2.403       .  S
Zr14         O21   2.374       .  S
Zr15         O17   2.435       .  S
Zr15         O39   2.433       .  S
Zr15         O41   2.611       .  S
Zr15         O19   2.369       .  S
Zr15         O22   2.423       .  S
Zr16         O42   2.433       .  S
Zr16         O43   2.435       .  S
Zr16         O18   2.438       .  S
Zr16         O19   2.377       .  S
Zr16         O20   2.433       .  S
O17          H54   0.990       .  S
O18          H49   0.990       .  S
O18          H63   0.989       .  S
O20          H46   0.965       .  S
O21         Zr31   2.322       .  S
O22         Zr31   2.404       .  S
O22          H47   0.965       .  S
C23        C2524   1.509       .  S
C24        C2552   1.543       .  S
C25        C2580   1.447       .  S
O26          H62   0.990       .  S
O27          C29   1.277       .  A
O28          C29   1.279       .  A
C29        C2566   1.465       .  S
O30         Zr31   2.433       .  S
O30          H59   0.990       .  S
Zr31         O34   2.438       .  S
Zr31         O35   2.440       .  S
Zr31         O36   2.480       .  S
O32          C37   1.285       .  A
O33          H50   0.990       .  S
O33          H65   0.990       .  S
O34          H51   0.990       .  S
O35          H55   0.990       .  S
O35          H64   0.990       .  S
O36          C37   1.289       .  A
C37        C2510   1.511       .  S
O38          H57   0.990       .  S
O38          H61   0.990       .  S
O39          H53   0.990       .  S
O39          H60   0.990       .  S
O40          C44   1.283       .  A
O41          C44   1.322       .  A
O42          H52   0.990       .  S
O43          H56   0.990       .  S
C44        C2538   1.531       .  S
Zr67         O68   2.444       .  S
Zr67         O69   2.480       .  S
Zr67         O70   2.386       .  S
Zr67         O73   2.439       .  S
Zr67         O75   2.364       .  S
Zr67         O76   2.389       .  S
Zr67         O77   2.441       .  S
Zr67         O78   2.380       .  S
O68         H124   0.990       .  S
O68         H132   0.990       .  S
O69          C89   1.290       .  A
O70          C91   1.274       .  A
O71         Zr81   2.654       .  S
O71          C90   1.332       .  A
O72         Zr80   2.409       .  S
O72          C91   1.281       .  A
O73          C90   1.284       .  A
O74         Zr82   2.460       .  S
O74          C89   1.289       .  A
O75         Zr80   2.372       .  S
O75         Zr82   2.349       .  S
O76         Zr81   2.426       .  S
O76         Zr82   2.405       .  S
O76         H111   0.969       .  S
O77         Zr80   2.398       .  S
O77         Zr97   2.428       .  S
O77         H114   0.970       .  S
O78         Zr81   2.349       .  S
O78         Zr97   2.376       .  S
Zr79        O104   2.441   1_545  S
Zr79         O98   2.432       .  S
Zr79        O106   2.390       .  S
Zr79         O94   2.420       .  S
Zr79         O85   2.406       .  S
Zr79         O86   2.415       .  S
Zr79         O87   2.363       .  S
Zr79         O88   2.394       .  S
Zr80         O99   2.440       .  S
Zr80         O92   2.435       .  S
Zr80         O93   2.421       .  S
Zr80         O86   2.399       .  S
Zr80         O87   2.387       .  S
Zr81         O83   2.437       .  S
Zr81        O105   2.440       .  S
Zr81        O107   2.640       .  S
Zr81         O85   2.382       .  S
Zr81         O88   2.407       .  S
Zr82        O108   2.438       .  S
Zr82        O109   2.436       .  S
Zr82         O84   2.437       .  S
Zr82         O85   2.385       .  S
Zr82         O86   2.429       .  S
O83         H120   0.990       .  S
O84         H115   0.990       .  S
O84         H129   0.990       .  S
O86         H112   0.969       .  S
O87         Zr97   2.347       .  S
O88         Zr97   2.393       .  S
O88         H113   0.969       .  S
C89        C2440   1.512       .  S
C90        C2468   1.550       .  S
C91        C2482   1.444       .  S
O92         H128   0.990       .  S
O93          C95   1.279       .  A
O94          C95   1.277       .  A
C95        C2496   1.465       .  S
O96         Zr97   2.435       .  S
O96         H125   0.990       .  S
Zr97        O100   2.436       .  S
Zr97        O101   2.434       .  S
Zr97        O102   2.453       .  S
O98         C103   1.282       .  A
O99         H116   0.990       .  S
O99         H131   0.990       .  S
O100        H117   0.990       .  S
O101        H121   0.990       .  S
O101        H130   0.990       .  S
O102        C103   1.286       .  A
C103       C2454   1.483       .  S
O104        H123   0.990       .  S
O104        H127   0.990       .  S
O105        H119   0.990       .  S
O105        H126   0.990       .  S
O106        C110   1.267       .  A
O107        C110   1.324       .  A
O108        H118   0.990       .  S
O109        H122   0.990       .  S
C110       C2541   1.546   1_545  S
Zr133       O134   2.430       .  S
Zr133       O135   2.461       .  S
Zr133       O136   2.402       .  S
Zr133       O139   2.369       .  S
Zr133       O141   2.356       .  S
Zr133       O142   2.376       .  S
Zr133       O143   2.432       .  S
Zr133       O144   2.333       .  S
O134        H190   0.990       .  S
O134        H198   0.989       .  S
O135        C155   1.286       .  A
O136        C157   1.273       .  A
O137       Zr147   2.640       .  S
O137        C156   1.320       .  A
O138       Zr146   2.409       .  S
O138        C157   1.275       .  A
O139        C156   1.258       .  A
O140       Zr148   2.423       .  S
O140        C155   1.281       .  A
O141       Zr146   2.389       .  S
O141       Zr148   2.355       .  S
O142       Zr147   2.410       .  S
O142       Zr148   2.399       .  S
O142        H177   0.963       .  S
O143       Zr146   2.399       .  S
O143       Zr163   2.424       .  S
O143        H180   0.967       .  S
O144       Zr147   2.266       .  S
O144       Zr163   2.324       .  S
Zr145       O170   2.447       .  S
Zr145       O164   2.460       .  S
Zr145       O172   2.456       .  S
Zr145       O160   2.432       .  S
Zr145       O151   2.387       .  S
Zr145       O152   2.422       .  S
Zr145       O153   2.374       .  S
Zr145       O154   2.403       .  S
Zr146       O165   2.439       .  S
Zr146       O158   2.433       .  S
Zr146       O159   2.394       .  S
Zr146       O152   2.405       .  S
Zr146       O153   2.379       .  S
Zr147       O149   2.435       .  S
Zr147       O171   2.440       .  S
Zr147       O173   2.607       .  S
Zr147       O151   2.384       .  S
Zr147       O154   2.420       .  S
Zr148       O174   2.433       .  S
Zr148       O175   2.430       .  S
Zr148       O150   2.443       .  S
Zr148       O151   2.379       .  S
Zr148       O152   2.407       .  S
O149        H186   0.990       .  S
O150        H181   0.990       .  S
O150        H195   0.990       .  S
O152        H178   0.976       .  S
O153       Zr163   2.338       .  S
O154       Zr163   2.399       .  S
O154        H179   0.964       .  S
C155       C2387   1.487       .  S
C156       C2471   1.547       .  S
C157       C2426   1.466       .  S
O158        H194   0.990       .  S
O159        C161   1.274       .  A
O160        C161   1.285       .  A
C161       C2412   1.469       .  S
O162       Zr163   2.442       .  S
O162        H191   0.989       .  S
Zr163       O166   2.438       .  S
Zr163       O167   2.446       .  S
Zr163       O168   2.490       .  S
O164        C169   1.287       .  A
O165        H182   0.990       .  S
O165        H197   0.990       .  S
O166        H183   0.990       .  S
O167        H187   0.990       .  S
O167        H196   0.991       .  S
O168        C169   1.291       .  A
C169       C2370   1.506       .  S
O170        H189   0.990       .  S
O170        H193   0.990       .  S
O171        H185   0.990       .  S
O171        H192   0.989       .  S
O172        C176   1.289       .  A
O173        C176   1.321       .  A
O174        H184   0.990       .  S
O175        H188   0.990       .  S
C176       C2398   1.543       .  S
Zr199       O200   2.453       .  S
Zr199       O201   2.461       .  S
Zr199       O202   2.370       .  S
Zr199       O205   2.354       .  S
Zr199       O207   2.356       .  S
Zr199       O208   2.371       .  S
Zr199       O209   2.410       .  S
Zr199       O210   2.322       .  S
O200        H256   0.991       .  S
O200        H264   0.990       .  S
O201        C221   1.285       .  A
O202        C223   1.268       .  A
O203       Zr213   2.622       .  S
O203        C222   1.312       .  A
O204       Zr212   2.411       .  S
O204        C223   1.281       .  A
O205        C222   1.257       .  A
O206       Zr214   2.425       .  S
O206        C221   1.282       .  A
O207       Zr212   2.397       .  S
O207       Zr214   2.359       .  S
O208       Zr213   2.410       .  S
O208       Zr214   2.403       .  S
O208        H243   0.970       .  S
O209       Zr212   2.393       .  S
O209       Zr229   2.425       .  S
O209        H246   0.990       .  S
O210       Zr213   2.277       .  S
O210       Zr229   2.316       .  S
Zr211       O236   2.435       .  S
Zr211       O230   2.452       .  S
Zr211       O238   2.449       .  S
Zr211       O226   2.439       .  S
Zr211       O217   2.385       .  S
Zr211       O218   2.429       .  S
Zr211       O219   2.374       .  S
Zr211       O220   2.399       .  S
Zr212       O231   2.437       .  S
Zr212       O224   2.435       .  S
Zr212       O225   2.412       .  S
Zr212       O218   2.404       .  S
Zr212       O219   2.380       .  S
Zr213       O215   2.434       .  S
Zr213       O237   2.439       .  S
Zr213       O239   2.589       .  S
Zr213       O217   2.389       .  S
Zr213       O220   2.419       .  S
Zr214       O240   2.432       .  S
Zr214       O241   2.436       .  S
Zr214       O216   2.438       .  S
Zr214       O217   2.381       .  S
Zr214       O218   2.414       .  S
O215        H252   0.990       .  S
O216        H247   0.990       .  S
O216        H261   0.990       .  S
O218        H244   0.970       .  S
O219       Zr229   2.318       .  S
O220       Zr229   2.398       .  S
O220        H245   0.981       .  S
C221       C2314   1.492       .  S
C222       C2401   1.539       .  S
C223       C2342   1.460       .  S
O224        H260   0.990       .  S
O225        C227   1.277       .  A
O226        C227   1.281       .  A
C227       C2359   1.470       .  S
O228       Zr229   2.435       .  S
O228        H257   0.992       .  S
Zr229       O232   2.441       .  S
Zr229       O233   2.442       .  S
Zr229       O234   2.479       .  S
O230        C235   1.284       .  A
O231        H248   0.990       .  S
O231        H263   0.989       .  S
O232        H249   0.990       .  S
O233        H253   0.991       .  S
O233        H262   0.990       .  S
O234        C235   1.290       .  A
C235       C2328   1.508       .  S
O236        H255   0.990       .  S
O236        H259   0.990       .  S
O237        H251   0.990       .  S
O237        H258   0.990       .  S
O238        C242   1.289       .  A
O239        C242   1.316       .  A
O240        H250   0.990       .  S
O241        H254   0.990       .  S
C242       C2555   1.538       .  S
Zr265       O266   2.438   1_655  S
Zr265       O267   2.428       .  S
Zr265       O268   2.397       .  S
Zr265       O271   2.377       .  S
Zr265       O273   2.358       .  S
Zr265       O274   2.393       .  S
Zr265       O275   2.406   1_554  S
Zr265       O276   2.412   1_554  S
O266        H322   0.989       .  S
O266        H330   0.989   1_554  S
O267        C287   1.282       .  A
O268        C289   1.280       .  A
O269       Zr279   2.637       .  S
O269        C288   1.323       .  A
O270       Zr278   2.407       .  S
O270        C289   1.279       .  A
O271        C288   1.265   1_554  A
O272       Zr280   2.472       .  S
O272        C287   1.291       .  A
O273       Zr278   2.383       .  S
O273       Zr280   2.340       .  S
O274       Zr279   2.394   1_554  S
O274       Zr280   2.384       .  S
O274        H309   0.965       .  S
O275       Zr278   2.392   1_556  S
O275       Zr295   2.423       .  S
O275        H312   0.968       .  S
O276       Zr279   2.384       .  S
O276       Zr295   2.401       .  S
Zr277       O302   2.437       .  S
Zr277       O296   2.481       .  S
Zr277       O304   2.408       .  S
Zr277       O292   2.407       .  S
Zr277       O284   2.429   1_556  S
Zr277       O285   2.347       .  S
Zr277       O286   2.394       .  S
Zr277       O283   2.298   1_556  S
Zr278       O297   2.435   1_554  S
Zr278       O290   2.435       .  S
Zr278       O291   2.408   1_554  S
Zr278       O284   2.407       .  S
Zr278       O285   2.353   1_554  S
Zr279       O281   2.433       .  S
Zr279       O303   2.438       .  S
Zr279       O305   2.627       .  S
Zr279       O286   2.421       .  S
Zr279       O283   2.275   1_556  S
Zr280       O306   2.434       .  S
Zr280       O307   2.436       .  S
Zr280       O282   2.444       .  S
Zr280       O284   2.423       .  S
Zr280       O283   2.307       .  S
O281        H318   0.990       .  S
O282        H313   0.990       .  S
O282        H327   0.990       .  S
O284        H310   0.968       .  S
O285       Zr295   2.340       .  S
O286       Zr295   2.408       .  S
O286        H311   0.966       .  S
C287       C2244   1.493       .  S
C288       C2258   1.540   1_655  S
C289       C2303   1.448       .  S
O290        H326   0.990       .  S
O291        C293   1.282       .  A
O292        C293   1.278       .  A
C293       C2286   1.455       .  S
O294       Zr295   2.437       .  S
O294        H323   0.990       .  S
Zr295       O298   2.437       .  S
Zr295       O299   2.440       .  S
Zr295       O300   2.471       .  S
O296        C301   1.289       .  A
O297        H314   0.990       .  S
O297        H329   0.990       .  S
O298        H315   0.990       .  S
O299        H319   0.990       .  S
O299        H328   0.990       .  S
O300        C301   1.291       .  A
C301       C2233   1.511       .  S
O302        H321   0.990       .  S
O302        H325   0.990       .  S
O303        H317   0.990       .  S
O303        H324   0.990   1_556  S
O304        C308   1.280       .  A
O305        C308   1.326       .  A
O306        H316   0.990       .  S
O307        H320   0.990       .  S
C308       C2272   1.544   1_556  S
Zr331       O332   2.444       .  S
Zr331       O333   2.450   1_556  S
Zr331       O334   2.405       .  S
Zr331       O337   2.392   1_556  S
Zr331       O339   2.358       .  S
Zr331       O340   2.383   1_556  S
Zr331       O341   2.409       .  S
Zr331       O342   2.323       .  S
O332        H388   0.990       .  S
O332        H396   0.988       .  S
O333        C353   1.286       .  A
O334        C355   1.277       .  A
O335       Zr345   2.610       .  S
O335        C354   1.314       .  A
O336       Zr344   2.397       .  S
O336        C355   1.278       .  A
O337        C354   1.264       .  A
O338       Zr346   2.429       .  S
O338        C353   1.281   1_556  A
O339       Zr344   2.381       .  S
O339       Zr346   2.361       .  S
O340       Zr345   2.417       .  S
O340       Zr346   2.405   1_554  S
O340        H375   0.963       .  S
O341       Zr344   2.389       .  S
O341       Zr361   2.422       .  S
O341        H378   0.962       .  S
O342       Zr345   2.285   1_556  S
O342       Zr361   2.319       .  S
Zr343       O368   2.439       .  S
Zr343       O362   2.451       .  S
Zr343       O370   2.446       .  S
Zr343       O358   2.446       .  S
Zr343       O349   2.387       .  S
Zr343       O350   2.421       .  S
Zr343       O351   2.365       .  S
Zr343       O352   2.400       .  S
Zr344       O363   2.439       .  S
Zr344       O356   2.436       .  S
Zr344       O357   2.368       .  S
Zr344       O350   2.406       .  S
Zr344       O351   2.383       .  S
Zr345       O347   2.435       .  S
Zr345       O369   2.435       .  S
Zr345       O371   2.601       .  S
Zr345       O349   2.380   1_554  S
Zr345       O352   2.419   1_554  S
Zr346       O372   2.435   1_556  S
Zr346       O373   2.434       .  S
Zr346       O348   2.437       .  S
Zr346       O349   2.376       .  S
Zr346       O350   2.417       .  S
O347        H384   0.990       .  S
O348        H379   0.990       .  S
O348        H393   0.990       .  S
O350        H376   0.966       .  S
O351       Zr361   2.335       .  S
O352       Zr361   2.397       .  S
O352        H377   0.976       .  S
C353       C2188   1.486       .  S
C354       C2275   1.543       .  S
C355       C2219   1.454       .  S
O356        H392   0.990       .  S
O357        C359   1.272       .  A
O358        C359   1.288       .  A
C359       C2429   1.468       .  S
O360       Zr361   2.433       .  S
O360        H389   0.990       .  S
Zr361       O364   2.440       .  S
Zr361       O365   2.437       .  S
Zr361       O366   2.485       .  S
O362        C367   1.285       .  A
O363        H380   0.989       .  S
O363        H395   0.988       .  S
O364        H381   0.990       .  S
O365        H385   0.990       .  S
O365        H394   0.990       .  S
O366        C367   1.291       .  A
C367       C2443   1.507       .  S
O368        H387   0.990       .  S
O368        H391   0.990       .  S
O369        H383   0.990       .  S
O369        H390   0.990       .  S
O370        C374   1.286   1_556  A
O371        C374   1.320       .  A
O372        H382   0.990       .  S
O373        H386   0.990       .  S
C374       C2202   1.541       .  S
Zr397       O398   2.440       .  S
Zr397       O399   2.444       .  S
Zr397       O400   2.449       .  S
Zr397       O403   2.444       .  S
Zr397       O405   2.368       .  S
Zr397       O406   2.403       .  S
Zr397       O407   2.422   1_554  S
Zr397       O408   2.384   1_554  S
O398        H454   0.990       .  S
O398        H462   0.991       .  S
O399        C419   1.283       .  A
O400        C421   1.289       .  A
O401       Zr411   2.607       .  S
O401        C420   1.321       .  A
O402       Zr410   2.377       .  S
O402        C421   1.272   1_556  A
O403        C420   1.287       .  A
O404       Zr412   2.476       .  S
O404        C419   1.289       .  A
O405       Zr410   2.386   1_554  S
O405       Zr412   2.332       .  S
O406       Zr411   2.413       .  S
O406       Zr412   2.394       .  S
O406        H441   0.970       .  S
O407       Zr410   2.411       .  S
O407       Zr427   2.426       .  S
O407        H444   0.965       .  S
O408       Zr411   2.382   1_556  S
O408       Zr427   2.373       .  S
Zr409       O434   2.441       .  S
Zr409       O428   2.443       .  S
Zr409       O436   2.380       .  S
Zr409       O424   2.408       .  S
Zr409       O416   2.429   1_556  S
Zr409       O417   2.358       .  S
Zr409       O418   2.389       .  S
Zr409       O415   2.320   1_556  S
Zr410       O429   2.437       .  S
Zr410       O422   2.435       .  S
Zr410       O423   2.410       .  S
Zr410       O416   2.405   1_556  S
Zr410       O417   2.392       .  S
Zr411       O413   2.434       .  S
Zr411       O435   2.435       .  S
Zr411       O437   2.629       .  S
Zr411       O418   2.420   1_554  S
Zr411       O415   2.269       .  S
Zr412       O438   2.441       .  S
Zr412       O439   2.434       .  S
Zr412       O414   2.436       .  S
Zr412       O416   2.432       .  S
Zr412       O415   2.309       .  S
O413        H450   0.990       .  S
O414        H445   0.990       .  S
O414        H459   0.989       .  S
O416        H442   0.969       .  S
O417       Zr427   2.355       .  S
O418       Zr427   2.406       .  S
O418        H443   0.965       .  S
C419       C2149   1.501       .  S
C420       C2163   1.539       .  S
C421       C2177   1.468       .  S
O422        H458   0.989       .  S
O423        C425   1.277       .  A
O424        C425   1.267       .  A
C425       C2485   1.455       .  S
O426       Zr427   2.435       .  S
O426        H455   0.990       .  S
Zr427       O430   2.436       .  S
Zr427       O431   2.436       .  S
Zr427       O432   2.439       .  S
O428        C433   1.282       .  A
O429        H446   0.990       .  S
O429        H461   0.990       .  S
O430        H447   0.990       .  S
O431        H451   0.990       .  S
O431        H460   0.990       .  S
O432        C433   1.285       .  A
C433       C2384   1.501       .  S
O434        H453   0.987       .  S
O434        H457   0.988       .  S
O435        H449   0.990       .  S
O435        H456   0.990       .  S
O436        C440   1.259   1_556  A
O437        C440   1.318       .  A
O438        H448   0.990       .  S
O439        H452   0.990       .  S
C440       C2205   1.544       .  S
Zr463       O464   2.443       .  S
Zr463       O465   2.446       .  S
Zr463       O466   2.407       .  S
Zr463       O469   2.392       .  S
Zr463       O471   2.369       .  S
Zr463       O472   2.385       .  S
Zr463       O473   2.432       .  S
Zr463       O474   2.409       .  S
O464        H520   0.990       .  S
O464        H528   0.989       .  S
O465        C485   1.285       .  A
O466        C487   1.266       .  A
O467       Zr477   2.624       .  S
O467        C486   1.318       .  A
O468       Zr476   2.428       .  S
O468        C487   1.280       .  A
O469        C486   1.263   1_554  A
O470       Zr478   2.433       .  S
O470        C485   1.281       .  A
O471       Zr476   2.403       .  S
O471       Zr478   2.354       .  S
O472       Zr477   2.410   1_554  S
O472       Zr478   2.404       .  S
O472        H507   0.965   1_554  S
O473       Zr476   2.411       .  S
O473       Zr493   2.417       .  S
O473        H510   0.974       .  S
O474       Zr477   2.378   1_554  S
O474       Zr493   2.387       .  S
Zr475       O500   2.443       .  S
Zr475       O494   2.462       .  S
Zr475       O502   2.422       .  S
Zr475       O490   2.414       .  S
Zr475       O481   2.382       .  S
Zr475       O482   2.422       .  S
Zr475       O483   2.357       .  S
Zr475       O484   2.397       .  S
Zr476       O495   2.435       .  S
Zr476       O488   2.439       .  S
Zr476       O489   2.422       .  S
Zr476       O482   2.403       .  S
Zr476       O483   2.375       .  S
Zr477       O479   2.435       .  S
Zr477       O501   2.435       .  S
Zr477       O503   2.594       .  S
Zr477       O481   2.380   1_556  S
Zr477       O484   2.426   1_556  S
Zr478       O504   2.435   1_554  S
Zr478       O505   2.436       .  S
Zr478       O480   2.437       .  S
Zr478       O481   2.374       .  S
Zr478       O482   2.424       .  S
O479        H516   0.990       .  S
O480        H511   0.990       .  S
O480        H525   0.990       .  S
O482        H508   0.963       .  S
O483       Zr493   2.346       .  S
O484       Zr493   2.408       .  S
O484        H509   0.968       .  S
C485       C2093   1.493       .  S
C486       C2160   1.535       .  S
C487       C2118   1.452       .  S
O488        H524   0.990       .  S
O489        C491   1.284       .  A
O490        C491   1.276       .  A
C491       C2135   1.473       .  S
O492       Zr493   2.436       .  S
O492        H521   0.990       .  S
Zr493       O496   2.435       .  S
Zr493       O497   2.443       .  S
Zr493       O498   2.438       .  S
O494        C499   1.292       .  A
O495        H512   0.990       .  S
O495        H527   0.990       .  S
O496        H513   0.990       .  S
O497        H517   0.990       .  S
O497        H526   0.990       .  S
O498        C499   1.280       .  A
C499       C2104   1.510       .  S
O500        H519   0.991       .  S
O500        H523   0.990       .  S
O501        H515   0.990       .  S
O501        H522   0.990       .  S
O502        C506   1.281   1_554  A
O503        C506   1.317       .  A
O504        H514   0.990       .  S
O505        H518   0.990       .  S
C506       C2261   1.527       .  S
Zr529       O530   2.447       .  S
Zr529       O531   2.495       .  S
Zr529       O532   2.403       .  S
Zr529       O535   2.440       .  S
Zr529       O537   2.370       .  S
Zr529       O538   2.397       .  S
Zr529       O539   2.440       .  S
Zr529       O540   2.403       .  S
O530        H586   0.990       .  S
O530        H594   0.990       .  S
O531        C551   1.293       .  A
O532        C553   1.273       .  A
O533       Zr543   2.615       .  S
O533        C552   1.322       .  A
O534       Zr542   2.391       .  S
O534        C553   1.270       .  A
O535        C552   1.281       .  A
O536       Zr544   2.450       .  S
O536        C551   1.285       .  A
O537       Zr542   2.374       .  S
O537       Zr544   2.329       .  S
O538       Zr543   2.424       .  S
O538       Zr544   2.403       .  S
O538        H573   0.968       .  S
O539       Zr542   2.406       .  S
O539       Zr559   2.418       .  S
O539        H576   0.964       .  S
O540       Zr543   2.400       .  S
O540       Zr559   2.394       .  S
Zr541       O566   2.436       .  S
Zr541       O560   2.436       .  S
Zr541       O568   2.347       .  S
Zr541       O556   2.397       .  S
Zr541       O547   2.425       .  S
Zr541       O548   2.412       .  S
Zr541       O549   2.340       .  S
Zr541       O550   2.384       .  S
Zr542       O561   2.436       .  S
Zr542       O554   2.434       .  S
Zr542       O555   2.414       .  S
Zr542       O548   2.390       .  S
Zr542       O549   2.369       .  S
Zr543       O545   2.435       .  S
Zr543       O567   2.436       .  S
Zr543       O569   2.647       .  S
Zr543       O547   2.385       .  S
Zr543       O550   2.405       .  S
Zr544       O570   2.443       .  S
Zr544       O571   2.428       .  S
Zr544       O546   2.440       .  S
Zr544       O547   2.394       .  S
Zr544       O548   2.446       .  S
O545        H582   0.990       .  S
O546        H577   0.990       .  S
O546        H591   0.989       .  S
O548        H574   0.963       .  S
O549       Zr559   2.346       .  S
O550       Zr559   2.383       .  S
O550        H575   0.965       .  S
C551       C2230   1.506       .  S
C552       C2062   1.549       .  S
C553       C2216   1.454       .  S
O554        H590   0.990       .  S
O555        C557   1.283       .  A
O556        C557   1.275       .  A
C557       C2415   1.472       .  S
O558       Zr559   2.429       .  S
O558        H587   0.991       .  S
Zr559       O562   2.440       .  S
Zr559       O563   2.435       .  S
Zr559       O564   2.450       .  S
O560        C565   1.284       .  A
O561        H578   0.990       .  S
O561        H593   0.990       .  S
O562        H579   0.990       .  S
O563        H583   0.990       .  S
O563        H592   0.990       .  S
O564        C565   1.286       .  A
C565       C2317   1.491       .  S
O566        H585   0.990       .  S
O566        H589   0.990       .  S
O567        H581   0.990       .  S
O567        H588   0.990       .  S
O568        C572   1.257       .  A
O569        C572   1.319       .  A
O570        H580   0.990       .  S
O571        H584   0.990       .  S
C572       C2076   1.544       .  S
Zr595       O596   2.430       .  S
Zr595       O597   2.447       .  S
Zr595       O598   2.464       .  S
Zr595       O601   2.450       .  S
Zr595       O603   2.355       .  S
Zr595       O604   2.405       .  S
Zr595       O605   2.428       .  S
Zr595       O606   2.388       .  S
O596        H652   0.990       .  S
O596        H660   0.990       .  S
O597        C617   1.286       .  A
O598        C619   1.289       .  A
O599       Zr609   2.611       .  S
O599        C618   1.322       .  A
O600       Zr608   2.403       .  S
O600        C619   1.281       .  A
O601        C618   1.287       .  A
O602       Zr610   2.481       .  S
O602        C617   1.292       .  A
O603       Zr608   2.370       .  S
O603       Zr610   2.322       .  S
O604       Zr609   2.413       .  S
O604       Zr610   2.394       .  S
O604        H639   0.969       .  S
O605       Zr608   2.409       .  S
O605       Zr625   2.438       .  S
O605        H642   0.974       .  S
O606       Zr609   2.378       .  S
O606       Zr625   2.374       .  S
Zr607       O632   2.444       .  S
Zr607       O626   2.463       .  S
Zr607       O634   2.385       .  S
Zr607       O622   2.400       .  S
Zr607       O614   2.431       .  S
Zr607       O615   2.365       .  S
Zr607       O616   2.384       .  S
Zr607       O613   2.321       .  S
Zr608       O627   2.441       .  S
Zr608       O620   2.435       .  S
Zr608       O621   2.406       .  S
Zr608       O614   2.409       .  S
Zr608       O615   2.402       .  S
Zr609       O611   2.434       .  S
Zr609       O633   2.435       .  S
Zr609       O635   2.627       .  S
Zr609       O616   2.414       .  S
Zr609       O613   2.274       .  S
Zr610       O636   2.438       .  S
Zr610       O637   2.435       .  S
Zr610       O612   2.439       .  S
Zr610       O614   2.426       .  S
Zr610       O613   2.313       .  S
O611        H648   0.990       .  S
O612        H643   0.990       .  S
O612        H657   0.990       .  S
O614        H640   0.966       .  S
O615       Zr625   2.358       .  S
O616       Zr625   2.406       .  S
O616        H641   0.963       .  S
C617       C1981   1.512       .  S
C618       C2020   1.544       .  S
C619       C2034   1.478       .  S
O620        H656   0.990       .  S
O621        C623   1.277       .  A
O622        C623   1.265       .  A
C623       C2048   1.448       .  S
O624       Zr625   2.437       .  S
O624        H653   0.990       .  S
Zr625       O628   2.435       .  S
Zr625       O629   2.436       .  S
Zr625       O630   2.444       .  S
O626        C631   1.287       .  A
O627        H644   0.990       .  S
O627        H659   0.990       .  S
O628        H645   0.989       .  S
O629        H649   0.990       .  S
O629        H658   0.990       .  S
O630        C631   1.283       .  A
C631       C1995   1.501       .  S
O632        H651   0.989       .  S
O632        H655   0.991       .  S
O633        H647   0.990       .  S
O633        H654   0.990       .  S
O634        C638   1.262       .  A
O635        C638   1.318       .  A
O636        H646   0.990       .  S
O637        H650   0.990       .  S
C638       C2006   1.542       .  S
Zr661       O662   2.432       .  S
Zr661       O663   2.463       .  S
Zr661       O664   2.442       .  S
Zr661       O667   2.453       .  S
Zr661       O669   2.365       .  S
Zr661       O670   2.404       .  S
Zr661       O671   2.430       .  S
Zr661       O672   2.382       .  S
O662        H718   0.990       .  S
O662        H726   0.991       .  S
O663        C683   1.288       .  A
O664        C685   1.283       .  A
O665       Zr675   2.617       .  S
O665        C684   1.323       .  A
O666       Zr674   2.396       .  S
O666        C685   1.273       .  A
O667        C684   1.288       .  A
O668       Zr676   2.468       .  S
O668        C683   1.286       .  A
O669       Zr674   2.372       .  S
O669       Zr676   2.329       .  S
O670       Zr675   2.416       .  S
O670       Zr676   2.404       .  S
O670        H705   0.968       .  S
O671       Zr674   2.405       .  S
O671       Zr691   2.428       .  S
O671        H708   0.965       .  S
O672       Zr675   2.375       .  S
O672       Zr691   2.380       .  S
Zr673       O698   2.445       .  S
Zr673       O692   2.428       .  S
Zr673       O700   2.374       .  S
Zr673       O688   2.420       .  S
Zr673       O680   2.416       .  S
Zr673       O681   2.350       .  S
Zr673       O682   2.385       .  S
Zr673       O679   2.319       .  S
Zr674       O693   2.438       .  S
Zr674       O686   2.434       .  S
Zr674       O687   2.396       .  S
Zr674       O680   2.409       .  S
Zr674       O681   2.396       .  S
Zr675       O677   2.435       .  S
Zr675       O699   2.436       .  S
Zr675       O701   2.627       .  S
Zr675       O682   2.409       .  S
Zr675       O679   2.282       .  S
Zr676       O702   2.441       .  S
Zr676       O703   2.435       .  S
Zr676       O678   2.435       .  S
Zr676       O680   2.429       .  S
Zr676       O679   2.308       .  S
O677        H714   0.990       .  S
O678        H709   0.990       .  S
O678        H723   0.990       .  S
O680        H706   0.967       .  S
O681       Zr691   2.352       .  S
O682       Zr691   2.401       .  S
O682        H707   0.965       .  S
C683       C2373   1.508       .  S
C684       C2079   1.546       .  S
C685       C2345   1.465       .  S
O686        H722   0.990       .  S
O687        C689   1.275       .  A
O688        C689   1.273       .  A
C689       C1967   1.448       .  S
O690       Zr691   2.430       .  S
O690        H719   0.991       .  S
Zr691       O694   2.435       .  S
Zr691       O695   2.438       .  S
Zr691       O696   2.433       .  S
O692        C697   1.279       .  A
O693        H710   0.990       .  S
O693        H725   0.989       .  S
O694        H711   0.990       .  S
O695        H715   0.990       .  S
O695        H724   0.989       .  S
O696        C697   1.283       .  A
C697       C1950   1.487       .  S
O698        H717   0.990       .  S
O698        H721   0.989       .  S
O699        H713   0.990       .  S
O699        H720   0.990       .  S
O700        C704   1.255       .  A
O701        C704   1.316       .  A
O702        H712   0.990       .  S
O703        H716   0.990       .  S
C704       C2023   1.540       .  S
Zr727       O728   2.445   1_554  S
Zr727       O729   2.469       .  S
Zr727       O730   2.400       .  S
Zr727       O733   2.385       .  S
Zr727       O735   2.356       .  S
Zr727       O736   2.383       .  S
Zr727       O737   2.414       .  S
Zr727       O738   2.328       .  S
O728        H784   0.990       .  S
O728        H792   0.988       .  S
O729        C749   1.290       .  A
O730        C751   1.270       .  A
O731       Zr741   2.602       .  S
O731        C750   1.309       .  A
O732       Zr740   2.418       .  S
O732        C751   1.281       .  A
O733        C750   1.263       .  A
O734       Zr742   2.417       .  S
O734        C749   1.278       .  A
O735       Zr740   2.378       .  S
O735       Zr742   2.361       .  S
O736       Zr741   2.427       .  S
O736       Zr742   2.408       .  S
O736        H771   0.967       .  S
O737       Zr740   2.384       .  S
O737       Zr757   2.430       .  S
O737        H774   0.964       .  S
O738       Zr741   2.291       .  S
O738       Zr757   2.321       .  S
Zr739       O764   2.437       .  S
Zr739       O758   2.432       .  S
Zr739       O766   2.430       .  S
Zr739       O754   2.406       .  S
Zr739       O745   2.387       .  S
Zr739       O746   2.411       .  S
Zr739       O747   2.380       .  S
Zr739       O748   2.391       .  S
Zr740       O759   2.436       .  S
Zr740       O752   2.434       .  S
Zr740       O753   2.373       .  S
Zr740       O746   2.407       .  S
Zr740       O747   2.402       .  S
Zr741       O743   2.435       .  S
Zr741       O765   2.437       .  S
Zr741       O767   2.602       .  S
Zr741       O745   2.386       .  S
Zr741       O748   2.420       .  S
Zr742       O768   2.437       .  S
Zr742       O769   2.436       .  S
Zr742       O744   2.438       .  S
Zr742       O745   2.374       .  S
Zr742       O746   2.400       .  S
O743        H780   0.990       .  S
O744        H775   0.990       .  S
O744        H789   0.990       .  S
O746        H772   0.969       .  S
O747       Zr757   2.335       .  S
O748       Zr757   2.387       .  S
O748        H773   0.969       .  S
C749       C2191   1.500       .  S
C750       C2065   1.540   1_554  S
C751       C2289   1.449       .  S
O752        H788   0.990       .  S
O753        C755   1.273       .  A
O754        C755   1.280       .  A
C755       C1936   1.433       .  S
O756       Zr757   2.441       .  S
O756        H785   0.991       .  S
Zr757       O760   2.443       .  S
Zr757       O761   2.441       .  S
Zr757       O762   2.492       .  S
O758        C763   1.282       .  A
O759        H776   0.990       .  S
O759        H791   0.990       .  S
O760        H777   0.990       .  S
O761        H781   0.991       .  S
O761        H790   0.989       .  S
O762        C763   1.293       .  A
C763       C1922   1.517       .  S
O764        H783   0.990       .  S
O764        H787   0.990       .  S
O765        H779   0.990       .  S
O765        H786   0.990       .  S
O766        C770   1.280       .  A
O767        C770   1.318       .  A
O768        H778   0.990       .  S
O769        H782   0.990       .  S
C770       C2009   1.540       .  S
Zr793       O794   2.443       .  S
Zr793       O795   2.474       .  S
Zr793       O796   2.412       .  S
Zr793       O799   2.435       .  S
Zr793       O801   2.379       .  S
Zr793       O802   2.396       .  S
Zr793       O803   2.441   1_565  S
Zr793       O804   2.391       .  S
O794        H850   0.990       .  S
O794        H858   0.990       .  S
O795        C815   1.288       .  A
O796        C817   1.275       .  A
O797       Zr807   2.633       .  S
O797        C816   1.327       .  A
O798       Zr806   2.403   1_565  S
O798        C817   1.272       .  A
O799        C816   1.285       .  A
O800       Zr808   2.463       .  S
O800        C815   1.286       .  A
O801       Zr806   2.402   1_565  S
O801       Zr808   2.346       .  S
O802       Zr807   2.432       .  S
O802       Zr808   2.393       .  S
O802        H837   0.964       .  S
O803       Zr806   2.412       .  S
O803       Zr823   2.410       .  S
O803        H840   0.968       .  S
O804       Zr807   2.378       .  S
O804       Zr823   2.383   1_565  S
Zr805       O830   2.436   1_546  S
Zr805       O824   2.443       .  S
Zr805       O832   2.357   1_545  S
Zr805       O820   2.387       .  S
Zr805       O812   2.408   1_545  S
Zr805       O813   2.355       .  S
Zr805       O814   2.378       .  S
Zr805       O811   2.319   1_545  S
Zr806       O825   2.437       .  S
Zr806       O818   2.436       .  S
Zr806       O819   2.423       .  S
Zr806       O812   2.406   1_545  S
Zr806       O813   2.387       .  S
Zr807       O809   2.436       .  S
Zr807       O831   2.434       .  S
Zr807       O833   2.640       .  S
Zr807       O814   2.411   1_565  S
Zr807       O811   2.287       .  S
Zr808       O834   2.439       .  S
Zr808       O835   2.440       .  S
Zr808       O810   2.443       .  S
Zr808       O812   2.420       .  S
Zr808       O811   2.319       .  S
O809        H846   0.990   1_565  S
O810        H841   0.990       .  S
O810        H855   0.990       .  S
O812        H838   0.965       .  S
O813       Zr823   2.365       .  S
O814       Zr823   2.394       .  S
O814        H839   0.971       .  S
C815       C2513   1.511       .  S
C816       C1908   1.552       .  S
C817       C2499   1.446   1_565  S
O818        H854   0.990   1_545  S
O819        C821   1.281       .  A
O820        C821   1.271       .  A
C821       C2174   1.468   1_556  S
O822       Zr823   2.434       .  S
O822        H851   0.990       .  S
Zr823       O826   2.437       .  S
Zr823       O827   2.435       .  S
Zr823       O828   2.440       .  S
O824        C829   1.285       .  A
O825        H842   0.990       .  S
O825        H857   0.990       .  S
O826        H843   0.990       .  S
O827        H847   0.990       .  S
O827        H856   0.990       .  S
O828        C829   1.282       .  A
C829       C2090   1.489       .  S
O830        H849   0.989   1_565  S
O830        H853   0.990       .  S
O831        H845   0.990       .  S
O831        H852   0.990       .  S
O832        C836   1.260       .  A
O833        C836   1.320       .  A
O834        H844   0.991       .  S
O835        H848   0.991       .  S
C836       C1897   1.548   1_556  S
Zr859       O860   2.439       .  S
Zr859       O861   2.443       .  S
Zr859       O862   2.363       .  S
Zr859       O865   2.346       .  S
Zr859       O867   2.356       .  S
Zr859       O868   2.375       .  S
Zr859       O869   2.423   1_565  S
Zr859       O870   2.328   1_565  S
O860        H916   0.991       .  S
O860        H924   0.990       .  S
O861        C881   1.283       .  A
O862        C883   1.266       .  A
O863       Zr873   2.637       .  S
O863        C882   1.316       .  A
O864       Zr872   2.446       .  S
O864        C883   1.283       .  A
O865        C882   1.255   1_565  A
O866       Zr874   2.441       .  S
O866        C881   1.285       .  A
O867       Zr872   2.387       .  S
O867       Zr874   2.354       .  S
O868       Zr873   2.401   1_565  S
O868       Zr874   2.400       .  S
O868        H903   0.962       .  S
O869       Zr872   2.403   1_545  S
O869       Zr889   2.431       .  S
O869        H906   0.964       .  S
O870       Zr873   2.282       .  S
O870       Zr889   2.330       .  S
Zr871       O896   2.442       .  S
Zr871       O890   2.441       .  S
Zr871       O898   2.467       .  S
Zr871       O886   2.448       .  S
Zr871       O877   2.389   1_545  S
Zr871       O878   2.425   1_545  S
Zr871       O879   2.369       .  S
Zr871       O880   2.397       .  S
Zr872       O891   2.437   1_565  S
Zr872       O884   2.434       .  S
Zr872       O885   2.417   1_565  S
Zr872       O878   2.416       .  S
Zr872       O879   2.388   1_565  S
Zr873       O875   2.434       .  S
Zr873       O897   2.440   1_545  S
Zr873       O899   2.602       .  S
Zr873       O877   2.397   1_545  S
Zr873       O880   2.418       .  S
Zr874       O900   2.434       .  S
Zr874       O901   2.433       .  S
Zr874       O876   2.441       .  S
Zr874       O877   2.390       .  S
Zr874       O878   2.427       .  S
O875        H912   0.990       .  S
O876        H907   0.990       .  S
O876        H921   0.990       .  S
O878        H904   0.966       .  S
O879       Zr889   2.323       .  S
O880       Zr889   2.397       .  S
O880        H905   0.958       .  S
C881       C1810   1.491       .  S
C882       C1855   1.544       .  S
C883       C1866   1.466       .  S
O884        H920   0.990       .  S
O885        C887   1.279       .  A
O886        C887   1.289       .  A
C887       C1880   1.480       .  S
O888       Zr889   2.434       .  S
O888        H917   0.991       .  S
Zr889       O892   2.437       .  S
Zr889       O893   2.444       .  S
Zr889       O894   2.500       .  S
O890        C895   1.283       .  A
O891        H908   0.990   1_545  S
O891        H923   0.990       .  S
O892        H909   0.990       .  S
O893        H913   0.990       .  S
O893        H922   0.989       .  S
O894        C895   1.290       .  A
C895       C1827   1.524       .  S
O896        H915   0.988       .  S
O896        H919   0.990       .  S
O897        H911   0.990   1_565  S
O897        H918   0.990       .  S
O898        C902   1.291       .  A
O899        C902   1.319       .  A
O900        H910   0.990       .  S
O901        H914   0.990       .  S
C902       C1838   1.554   1_545  S
Zr925       O926   2.446       .  S
Zr925       O927   2.463       .  S
Zr925       O928   2.445       .  S
Zr925       O931   2.445       .  S
Zr925       O933   2.361       .  S
Zr925       O934   2.410       .  S
Zr925       O935   2.417       .  S
Zr925       O936   2.393       .  S
O926        H982   0.989       .  S
O926        H990   0.989       .  S
O927        C947   1.289       .  A
O928        C949   1.285       .  A
O929       Zr939   2.619       .  S
O929        C948   1.323       .  A
O930       Zr938   2.385       .  S
O930        C949   1.273       .  A
O931        C948   1.284   1_565  A
O932       Zr940   2.492       .  S
O932        C947   1.293       .  A
O933       Zr938   2.380       .  S
O933       Zr940   2.334       .  S
O934       Zr939   2.429   1_565  S
O934       Zr940   2.397       .  S
O934        H969   0.968       .  S
O935       Zr938   2.396       .  S
O935       Zr955   2.424       .  S
O935        H972   0.971       .  S
O936       Zr939   2.388   1_565  S
O936       Zr955   2.383       .  S
Zr937       O962   2.437       .  S
Zr937       O956   2.459       .  S
Zr937       O964   2.367   1_565  S
Zr937       O952   2.381       .  S
Zr937       O944   2.409       .  S
Zr937       O945   2.352       .  S
Zr937       O946   2.378       .  S
Zr937       O943   2.326       .  S
Zr938       O957   2.434       .  S
Zr938       O950   2.424       .  S
Zr938       O951   2.409       .  S
Zr938       O944   2.389       .  S
Zr938       O945   2.388       .  S
Zr939       O941   2.435       .  S
Zr939       O963   2.437       .  S
Zr939       O965   2.643       .  S
Zr939       O946   2.411   1_545  S
Zr939       O943   2.282   1_545  S
Zr940       O966   2.439       .  S
Zr940       O967   2.440       .  S
Zr940       O942   2.439       .  S
Zr940       O944   2.423       .  S
Zr940       O943   2.319       .  S
O941        H978   0.990       .  S
O942        H973   0.990       .  S
O942        H987   0.990       .  S
O944        H970   0.967       .  S
O945       Zr955   2.358       .  S
O946       Zr955   2.395       .  S
O946        H971   0.969   1_565  S
C947       C1782   1.521       .  S
C948       C1852   1.546       .  S
C949       C1799   1.474       .  S
O950        H986   0.990       .  S
O951        C953   1.278       .  A
O952        C953   1.275       .  A
C953       C2569   1.458       .  S
O954       Zr955   2.432       .  S
O954        H983   0.991       .  S
Zr955       O958   2.438       .  S
Zr955       O959   2.439   1_565  S
Zr955       O960   2.436       .  S
O956        C961   1.285   1_565  A
O957        H974   0.990       .  S
O957        H989   0.990       .  S
O958        H975   0.990       .  S
O959        H979   0.990       .  S
O959        H988   0.990       .  S
O960        C961   1.285   1_565  A
C961       C2457   1.507       .  S
O962        H981   0.988       .  S
O962        H985   0.988       .  S
O963        H977   0.990       .  S
O963        H984   0.990       .  S
O964        C968   1.257       .  A
O965        C968   1.320       .  A
O966        H976   0.990       .  S
O967        H980   0.991       .  S
C968       C1911   1.552       .  S
Zr991       O992   2.441       .  S
Zr991       O993   2.481       .  S
Zr991       O994   2.410       .  S
Zr991       O997   2.429       .  S
Zr991       O999   2.366       .  S
Zr991      O1000   2.400       .  S
Zr991      O1001   2.451       .  S
Zr991      O1002   2.403       .  S
O992       H1048   0.990       .  S
O992       H1056   0.989       .  S
O993       C1013   1.289       .  A
O994       C1015   1.274       .  A
O995      Zr1005   2.650       .  S
O995       C1014   1.331       .  A
O996      Zr1004   2.409       .  S
O996       C1015   1.269       .  A
O997       C1014   1.282   1_545  A
O998      Zr1006   2.455       .  S
O998       C1013   1.288       .  A
O999      Zr1004   2.362       .  S
O999      Zr1006   2.332       .  S
O1000     Zr1005   2.432   1_545  S
O1000     Zr1006   2.407       .  S
O1000      H1035   0.964       .  S
O1001     Zr1004   2.412       .  S
O1001     Zr1021   2.419       .  S
O1001      H1038   0.973       .  S
O1002     Zr1005   2.377   1_545  S
O1002     Zr1021   2.388       .  S
Zr1003     O1028   2.442       .  S
Zr1003     O1022   2.488       .  S
Zr1003     O1030   2.373       .  S
Zr1003     O1018   2.427       .  S
Zr1003     O1009   2.408       .  S
Zr1003     O1010   2.416       .  S
Zr1003     O1011   2.349       .  S
Zr1003     O1012   2.403       .  S
Zr1004     O1023   2.435       .  S
Zr1004     O1016   2.434       .  S
Zr1004     O1017   2.401       .  S
Zr1004     O1010   2.394       .  S
Zr1004     O1011   2.384       .  S
Zr1005     O1007   2.434       .  S
Zr1005     O1029   2.438       .  S
Zr1005     O1031   2.649       .  S
Zr1005     O1009   2.384   1_565  S
Zr1005     O1012   2.396   1_565  S
Zr1006     O1032   2.437       .  S
Zr1006     O1033   2.434       .  S
Zr1006     O1008   2.437       .  S
Zr1006     O1009   2.380       .  S
Zr1006     O1010   2.445       .  S
O1007      H1044   0.990       .  S
O1008      H1039   0.990       .  S
O1008      H1053   0.990       .  S
O1010      H1036   0.967       .  S
O1011     Zr1021   2.351       .  S
O1012     Zr1021   2.390       .  S
O1012      H1037   0.958   1_545  S
C1013      C2146   1.499       .  S
C1014      C1894   1.555       .  S
C1015      C2121   1.466       .  S
O1016      H1052   0.990       .  S
O1017      C1019   1.277       .  A
O1018      C1019   1.278       .  A
C1019      C1771   1.456       .  S
O1020     Zr1021   2.430       .  S
O1020      H1049   0.990       .  S
Zr1021     O1024   2.438       .  S
Zr1021     O1025   2.433   1_545  S
Zr1021     O1026   2.425       .  S
O1022      C1027   1.296       .  A
O1023      H1040   0.990       .  S
O1023      H1055   0.990       .  S
O1024      H1041   0.990       .  S
O1025      H1045   0.990       .  S
O1025      H1054   0.990       .  S
O1026      C1027   1.280       .  A
C1027      C1754   1.501       .  S
O1028      H1047   0.989       .  S
O1028      H1051   0.990       .  S
O1029      H1043   0.990       .  S
O1029      H1050   0.990       .  S
O1030      C1034   1.262   1_545  A
O1031      C1034   1.322       .  A
O1032      H1042   0.990       .  S
O1033      H1046   0.990       .  S
C1034      C1841   1.539       .  S
Zr1057     O1058   2.438       .  S
Zr1057     O1059   2.461       .  S
Zr1057     O1060   2.445   1_655  S
Zr1057     O1063   2.447   1_655  S
Zr1057     O1065   2.368       .  S
Zr1057     O1066   2.399       .  S
Zr1057     O1067   2.421   1_655  S
Zr1057     O1068   2.393   1_655  S
O1058      H1114   0.990   1_655  S
O1058      H1122   0.990       .  S
O1059      C1079   1.288       .  A
O1060      C1081   1.287       .  A
O1061     Zr1071   2.611   1_455  S
O1061      C1080   1.321       .  A
O1062     Zr1070   2.368       .  S
O1062      C1081   1.269       .  A
O1063      C1080   1.288       .  A
O1064     Zr1072   2.497       .  S
O1064      C1079   1.292       .  A
O1065     Zr1070   2.391   1_655  S
O1065     Zr1072   2.333       .  S
O1066     Zr1071   2.423       .  S
O1066     Zr1072   2.396       .  S
O1066      H1101   0.966       .  S
O1067     Zr1070   2.401       .  S
O1067     Zr1087   2.419       .  S
O1067      H1104   0.992       .  S
O1068     Zr1071   2.384   1_455  S
O1068     Zr1087   2.390       .  S
Zr1069     O1094   2.441   1_565  S
Zr1069     O1088   2.434       .  S
Zr1069     O1096   2.370       .  S
Zr1069     O1084   2.411   1_565  S
Zr1069     O1076   2.408       .  S
Zr1069     O1077   2.354       .  S
Zr1069     O1078   2.383       .  S
Zr1069     O1075   2.332   1_455  S
Zr1070     O1089   2.439       .  S
Zr1070     O1082   2.437       .  S
Zr1070     O1083   2.400       .  S
Zr1070     O1076   2.399       .  S
Zr1070     O1077   2.385       .  S
Zr1071     O1073   2.435   1_655  S
Zr1071     O1095   2.436       .  S
Zr1071     O1097   2.616       .  S
Zr1071     O1078   2.420   1_655  S
Zr1071     O1075   2.291       .  S
Zr1072     O1098   2.441       .  S
Zr1072     O1099   2.437       .  S
Zr1072     O1074   2.441       .  S
Zr1072     O1076   2.427   1_655  S
Zr1072     O1075   2.323       .  S
O1073      H1110   0.990       .  S
O1074      H1105   0.990       .  S
O1074      H1119   0.990       .  S
O1076      H1102   0.966   1_455  S
O1077     Zr1087   2.377       .  S
O1078     Zr1087   2.396       .  S
O1078      H1103   0.962       .  S
C1079      C1701   1.522       .  S
C1080      C1729   1.552       .  S
C1081      C1740   1.457   1_455  S
O1082      H1118   0.990       .  S
O1083      C1085   1.277   1_565  A
O1084      C1085   1.274       .  A
C1085      C1883   1.471       .  S
O1086     Zr1087   2.435       .  S
O1086      H1115   0.990       .  S
Zr1087     O1090   2.435       .  S
Zr1087     O1091   2.437       .  S
Zr1087     O1092   2.447       .  S
O1088      C1093   1.281       .  A
O1089      H1106   0.990       .  S
O1089      H1121   0.990       .  S
O1090      H1107   0.990       .  S
O1091      H1111   0.990       .  S
O1091      H1120   0.990       .  S
O1092      C1093   1.283       .  A
C1093      C1757   1.488       .  S
O1094      H1113   0.989       .  S
O1094      H1117   0.990       .  S
O1095      H1109   0.990       .  S
O1095      H1116   0.990       .  S
O1096      C1100   1.256   1_455  A
O1097      C1100   1.311       .  A
O1098      H1108   0.990       .  S
O1099      H1112   0.990       .  S
C1100      C1715   1.544   1_565  S
Zr1123     O1124   2.430   1_655  S
Zr1123     O1125   2.439       .  S
Zr1123     O1126   2.413       .  S
Zr1123     O1129   2.370   1_655  S
Zr1123     O1131   2.358       .  S
Zr1123     O1132   2.389       .  S
Zr1123     O1133   2.411   1_655  S
Zr1123     O1134   2.321   1_655  S
O1124      H1180   0.989   1_455  S
O1124      H1188   0.990       .  S
O1125      C1145   1.285       .  A
O1126      C1147   1.275       .  A
O1127     Zr1137   2.630       .  S
O1127      C1146   1.319       .  A
O1128     Zr1136   2.406       .  S
O1128      C1147   1.268       .  A
O1129      C1146   1.263       .  A
O1130     Zr1138   2.427       .  S
O1130      C1145   1.283       .  A
O1131     Zr1136   2.378       .  S
O1131     Zr1138   2.362       .  S
O1132     Zr1137   2.404   1_655  S
O1132     Zr1138   2.394       .  S
O1132      H1167   0.969       .  S
O1133     Zr1136   2.409   1_455  S
O1133     Zr1153   2.421       .  S
O1133      H1170   0.968       .  S
O1134     Zr1137   2.280       .  S
O1134     Zr1153   2.312       .  S
Zr1135     O1160   2.447       .  S
Zr1135     O1154   2.443       .  S
Zr1135     O1162   2.439       .  S
Zr1135     O1150   2.432       .  S
Zr1135     O1141   2.394       .  S
Zr1135     O1142   2.431   1_455  S
Zr1135     O1143   2.382       .  S
Zr1135     O1144   2.409       .  S
Zr1136     O1155   2.438       .  S
Zr1136     O1148   2.437       .  S
Zr1136     O1149   2.383   1_655  S
Zr1136     O1142   2.405       .  S
Zr1136     O1143   2.395   1_655  S
Zr1137     O1139   2.434       .  S
Zr1137     O1161   2.436       .  S
Zr1137     O1163   2.625       .  S
Zr1137     O1141   2.377       .  S
Zr1137     O1144   2.429       .  S
Zr1138     O1164   2.434       .  S
Zr1138     O1165   2.434       .  S
Zr1138     O1140   2.440       .  S
Zr1138     O1141   2.375   1_655  S
Zr1138     O1142   2.411       .  S
O1139      H1176   0.990       .  S
O1140      H1171   0.990       .  S
O1140      H1185   0.990       .  S
O1142      H1168   0.964       .  S
O1143     Zr1153   2.351       .  S
O1144     Zr1153   2.398       .  S
O1144      H1169   0.964       .  S
C1145      C1992   1.487       .  S
C1146      C1684   1.542       .  S
C1147      C1939   1.452       .  S
O1148      H1184   0.990       .  S
O1149      C1151   1.272       .  A
O1150      C1151   1.278       .  A
C1151      C2300   1.471   1_455  S
O1152     Zr1153   2.438       .  S
O1152      H1181   0.990       .  S
Zr1153     O1156   2.435       .  S
Zr1153     O1157   2.445       .  S
Zr1153     O1158   2.466       .  S
O1154      C1159   1.283       .  A
O1155      H1172   0.990       .  S
O1155      H1187   0.989       .  S
O1156      H1173   0.990       .  S
O1157      H1177   0.990       .  S
O1157      H1186   0.990       .  S
O1158      C1159   1.287       .  A
C1159      C2107   1.499       .  S
O1160      H1179   0.990       .  S
O1160      H1183   0.991       .  S
O1161      H1175   0.990       .  S
O1161      H1182   0.990       .  S
O1162      C1166   1.283       .  A
O1163      C1166   1.324       .  A
O1164      H1174   0.990       .  S
O1165      H1178   0.990       .  S
C1166      C1670   1.543       .  S
Zr1189     O1190   2.441       .  S
Zr1189     O1191   2.457       .  S
Zr1189     O1192   2.408       .  S
Zr1189     O1195   2.432   1_655  S
Zr1189     O1197   2.370       .  S
Zr1189     O1198   2.402       .  S
Zr1189     O1199   2.439       .  S
Zr1189     O1200   2.391   1_655  S
O1190      H1246   0.990       .  S
O1190      H1254   0.989       .  S
O1191      C1211   1.288       .  A
O1192      C1213   1.273       .  A
O1193     Zr1203   2.641       .  S
O1193      C1212   1.329       .  A
O1194     Zr1202   2.412       .  S
O1194      C1213   1.273       .  A
O1195      C1212   1.281       .  A
O1196     Zr1204   2.488       .  S
O1196      C1211   1.292       .  A
O1197     Zr1202   2.368       .  S
O1197     Zr1204   2.340       .  S
O1198     Zr1203   2.435   1_655  S
O1198     Zr1204   2.404       .  S
O1198      H1233   0.967   1_655  S
O1199     Zr1202   2.405       .  S
O1199     Zr1219   2.397       .  S
O1199      H1236   0.991       .  S
O1200     Zr1203   2.379       .  S
O1200     Zr1219   2.378   1_455  S
Zr1201     O1226   2.437       .  S
Zr1201     O1220   2.449       .  S
Zr1201     O1228   2.364   1_655  S
Zr1201     O1216   2.391       .  S
Zr1201     O1207   2.416       .  S
Zr1201     O1208   2.408       .  S
Zr1201     O1209   2.351       .  S
Zr1201     O1210   2.386   1_655  S
Zr1202     O1221   2.437       .  S
Zr1202     O1214   2.435       .  S
Zr1202     O1215   2.415       .  S
Zr1202     O1208   2.387       .  S
Zr1202     O1209   2.380       .  S
Zr1203     O1205   2.435       .  S
Zr1203     O1227   2.437       .  S
Zr1203     O1229   2.648       .  S
Zr1203     O1207   2.395   1_455  S
Zr1203     O1210   2.404       .  S
Zr1204     O1230   2.437       .  S
Zr1204     O1231   2.435       .  S
Zr1204     O1206   2.438       .  S
Zr1204     O1207   2.414       .  S
Zr1204     O1208   2.431       .  S
O1205      H1242   0.990       .  S
O1206      H1237   0.990       .  S
O1206      H1251   0.990       .  S
O1208      H1234   0.964       .  S
O1209     Zr1219   2.357       .  S
O1210     Zr1219   2.387   1_455  S
O1210      H1235   0.967       .  S
C1211      C1925   1.514       .  S
C1212      C1687   1.550       .  S
C1213      C2051   1.449       .  S
O1214      H1250   0.990       .  S
O1215      C1217   1.281       .  A
O1216      C1217   1.276       .  A
C1217      C1656   1.461       .  S
O1218     Zr1219   2.434       .  S
O1218      H1247   0.990       .  S
Zr1219     O1222   2.435       .  S
Zr1219     O1223   2.436   1_655  S
Zr1219     O1224   2.425       .  S
O1220      C1225   1.288       .  A
O1221      H1238   0.989       .  S
O1221      H1253   0.990       .  S
O1222      H1239   0.990       .  S
O1223      H1243   0.990       .  S
O1223      H1252   0.990       .  S
O1224      C1225   1.281       .  A
C1225      C1642   1.490   1_655  S
O1226      H1245   0.990       .  S
O1226      H1249   0.990       .  S
O1227      H1241   0.990       .  S
O1227      H1248   0.990       .  S
O1228      C1232   1.261       .  A
O1229      C1232   1.323       .  A
O1230      H1240   0.990       .  S
O1231      H1244   0.990       .  S
C1232      C1726   1.546       .  S
Zr1255     O1256   2.448       .  S
Zr1255     O1257   2.450       .  S
Zr1255     O1258   2.404       .  S
Zr1255     O1261   2.391   1_455  S
Zr1255     O1263   2.363       .  S
Zr1255     O1264   2.385       .  S
Zr1255     O1265   2.441       .  S
Zr1255     O1266   2.415       .  S
O1256      H1312   0.990       .  S
O1256      H1320   0.989       .  S
O1257      C1277   1.281       .  A
O1258      C1279   1.273       .  A
O1259     Zr1269   2.641       .  S
O1259      C1278   1.319       .  A
O1260     Zr1268   2.421       .  S
O1260      C1279   1.282       .  A
O1261      C1278   1.258       .  A
O1262     Zr1270   2.420       .  S
O1262      C1277   1.280       .  A
O1263     Zr1268   2.389       .  S
O1263     Zr1270   2.372       .  S
O1264     Zr1269   2.426   1_455  S
O1264     Zr1270   2.408       .  S
O1264      H1299   0.971   1_455  S
O1265     Zr1268   2.384       .  S
O1265     Zr1285   2.444       .  S
O1265      H1302   0.947       .  S
O1266     Zr1269   2.350   1_455  S
O1266     Zr1285   2.383       .  S
Zr1267     O1292   2.435       .  S
Zr1267     O1286   2.462       .  S
Zr1267     O1294   2.480       .  S
Zr1267     O1282   2.461       .  S
Zr1267     O1273   2.374       .  S
Zr1267     O1274   2.417       .  S
Zr1267     O1275   2.380       .  S
Zr1267     O1276   2.401       .  S
Zr1268     O1287   2.435       .  S
Zr1268     O1280   2.436       .  S
Zr1268     O1281   2.369       .  S
Zr1268     O1274   2.402       .  S
Zr1268     O1275   2.398       .  S
Zr1269     O1271   2.434       .  S
Zr1269     O1293   2.433       .  S
Zr1269     O1295   2.600       .  S
Zr1269     O1273   2.384   1_655  S
Zr1269     O1276   2.430   1_655  S
Zr1270     O1296   2.435   1_455  S
Zr1270     O1297   2.435       .  S
Zr1270     O1272   2.443       .  S
Zr1270     O1273   2.373       .  S
Zr1270     O1274   2.408       .  S
O1271      H1308   0.990       .  S
O1272      H1303   0.990       .  S
O1272      H1317   0.989       .  S
O1274      H1300   0.971       .  S
O1275     Zr1285   2.346       .  S
O1276     Zr1285   2.401       .  S
O1276      H1301   0.964       .  S
C1277      C2247   1.489   1_455  S
C1278      C1673   1.545       .  S
C1279      C2132   1.457       .  S
O1280      H1316   0.990       .  S
O1281      C1283   1.275       .  A
O1282      C1283   1.288       .  A
C1283      C1768   1.482       .  S
O1284     Zr1285   2.439       .  S
O1284      H1313   0.991       .  S
Zr1285     O1288   2.438       .  S
Zr1285     O1289   2.438       .  S
Zr1285     O1290   2.470       .  S
O1286      C1291   1.288       .  A
O1287      H1304   0.990       .  S
O1287      H1319   0.990       .  S
O1288      H1305   0.990       .  S
O1289      H1309   0.990       .  S
O1289      H1318   0.990       .  S
O1290      C1291   1.288       .  A
C1291      C1824   1.508       .  S
O1292      H1311   0.990       .  S
O1292      H1315   0.989       .  S
O1293      H1307   0.990       .  S
O1293      H1314   0.990       .  S
O1294      C1298   1.295       .  A
O1295      C1298   1.318   1_655  A
O1296      H1306   0.990       .  S
O1297      H1310   0.990       .  S
C1298      C1712   1.553   1_455  S
Zr1321     O1322   2.438       .  S
Zr1321     O1323   2.463       .  S
Zr1321     O1324   2.427       .  S
Zr1321     O1327   2.459       .  S
Zr1321     O1329   2.378       .  S
Zr1321     O1330   2.400       .  S
Zr1321     O1331   2.428       .  S
Zr1321     O1332   2.385       .  S
O1322      H1378   0.989       .  S
O1322      H1386   0.991       .  S
O1323      C1343   1.289       .  A
O1324      C1345   1.278       .  A
O1325     Zr1335   2.623       .  S
O1325      C1344   1.322       .  A
O1326     Zr1334   2.409       .  S
O1326      C1345   1.278       .  A
O1327      C1344   1.286       .  A
O1328     Zr1336   2.495       .  S
O1328      C1343   1.291       .  A
O1329     Zr1334   2.391       .  S
O1329     Zr1336   2.329       .  S
O1330     Zr1335   2.421       .  S
O1330     Zr1336   2.401       .  S
O1330      H1365   0.968       .  S
O1331     Zr1334   2.401       .  S
O1331     Zr1351   2.413       .  S
O1331      H1368   0.967       .  S
O1332     Zr1335   2.383       .  S
O1332     Zr1351   2.382       .  S
Zr1333     O1358   2.459       .  S
Zr1333     O1352   2.435       .  S
Zr1333     O1360   2.362       .  S
Zr1333     O1348   2.381       .  S
Zr1333     O1340   2.427       .  S
Zr1333     O1341   2.360       .  S
Zr1333     O1342   2.379       .  S
Zr1333     O1339   2.321       .  S
Zr1334     O1353   2.437       .  S
Zr1334     O1346   2.432       .  S
Zr1334     O1347   2.437       .  S
Zr1334     O1340   2.399       .  S
Zr1334     O1341   2.394       .  S
Zr1335     O1337   2.435       .  S
Zr1335     O1359   2.434       .  S
Zr1335     O1361   2.631       .  S
Zr1335     O1342   2.419       .  S
Zr1335     O1339   2.274       .  S
Zr1336     O1362   2.438       .  S
Zr1336     O1363   2.438       .  S
Zr1336     O1338   2.441       .  S
Zr1336     O1340   2.431       .  S
Zr1336     O1339   2.317       .  S
O1337      H1374   0.990       .  S
O1338      H1369   0.990       .  S
O1338      H1383   0.990       .  S
O1340      H1366   0.981       .  S
O1341     Zr1351   2.376       .  S
O1342     Zr1351   2.400       .  S
O1342      H1367   0.966       .  S
C1343      C1698   1.520       .  S
C1344      C1614   1.557       .  S
C1345      C1659   1.461       .  S
O1346      H1382   0.990       .  S
O1347      C1349   1.285       .  A
O1348      C1349   1.266       .  A
C1349      C2037   1.455       .  S
O1350     Zr1351   2.431       .  S
O1350      H1379   0.990       .  S
Zr1351     O1354   2.438       .  S
Zr1351     O1355   2.436       .  S
Zr1351     O1356   2.427       .  S
O1352      C1357   1.277       .  A
O1353      H1370   0.990       .  S
O1353      H1385   0.990       .  S
O1354      H1371   0.990       .  S
O1355      H1375   0.990       .  S
O1355      H1384   0.990       .  S
O1356      C1357   1.280       .  A
C1357      C1953   1.480       .  S
O1358      H1377   0.990       .  S
O1358      H1381   0.988       .  S
O1359      H1373   0.990       .  S
O1359      H1380   0.990       .  S
O1360      C1364   1.254       .  A
O1361      C1364   1.315       .  A
O1362      H1372   0.990       .  S
O1363      H1376   0.990       .  S
C1364      C1628   1.545       .  S
Zr1387     O1388   2.444       .  S
Zr1387     O1389   2.422       .  S
Zr1387     O1390   2.392       .  S
Zr1387     O1393   2.353       .  S
Zr1387     O1395   2.352       .  S
Zr1387     O1396   2.379       .  S
Zr1387     O1397   2.404       .  S
Zr1387     O1398   2.438       .  S
O1388      H1444   0.988       .  S
O1388      H1452   0.986       .  S
O1389      C1409   1.277       .  A
O1390      C1411   1.271       .  A
O1391     Zr1401   2.651       .  S
O1391      C1410   1.320       .  A
O1392     Zr1400   2.400       .  S
O1392      C1411   1.281       .  A
O1393      C1410   1.251       .  A
O1394     Zr1402   2.436       .  S
O1394      C1409   1.284       .  A
O1395     Zr1400   2.384       .  S
O1395     Zr1402   2.360       .  S
O1396     Zr1401   2.407       .  S
O1396     Zr1402   2.377       .  S
O1396      H1431   0.970       .  S
O1397     Zr1400   2.382       .  S
O1397     Zr1417   2.427       .  S
O1397      H1434   0.963       .  S
O1398     Zr1401   2.410       .  S
O1398     Zr1417   2.421       .  S
Zr1399     O1424   2.446       .  S
Zr1399     O1418   2.459       .  S
Zr1399     O1426   2.455       .  S
Zr1399     O1414   2.447       .  S
Zr1399     O1405   2.407       .  S
Zr1399     O1406   2.421       .  S
Zr1399     O1407   2.365       .  S
Zr1399     O1408   2.401       .  S
Zr1400     O1419   2.437       .  S
Zr1400     O1412   2.437       .  S
Zr1400     O1413   2.382       .  S
Zr1400     O1406   2.408       .  S
Zr1400     O1407   2.377       .  S
Zr1401     O1403   2.435       .  S
Zr1401     O1425   2.434       .  S
Zr1401     O1427   2.627       .  S
Zr1401     O1405   2.415       .  S
Zr1401     O1408   2.426       .  S
Zr1402     O1428   2.439       .  S
Zr1402     O1429   2.434       .  S
Zr1402     O1404   2.440       .  S
Zr1402     O1405   2.398       .  S
Zr1402     O1406   2.416       .  S
O1403      H1440   0.990       .  S
O1404      H1435   0.990       .  S
O1404      H1449   0.989       .  S
O1406      H1432   0.968       .  S
O1407     Zr1417   2.331       .  S
O1408     Zr1417   2.399       .  S
O1408      H1433   0.963       .  S
C1409      C1813   1.490       .  S
C1410      C1589   1.548       .  S
C1411      C1796   1.459       .  S
O1412      H1448   0.990       .  S
O1413      C1415   1.271       .  A
O1414      C1415   1.288       .  A
C1415      C2583   1.471       .  S
O1416     Zr1417   2.439       .  S
O1416      H1445   0.990       .  S
Zr1417     O1420   2.444       .  S
Zr1417     O1421   2.444       .  S
Zr1417     O1422   2.475       .  S
O1418      C1423   1.285       .  A
O1419      H1436   0.989       .  S
O1419      H1451   0.990       .  S
O1420      H1437   0.991       .  S
O1421      H1441   0.990       .  S
O1421      H1450   0.990       .  S
O1422      C1423   1.289       .  A
C1423      C2331   1.509       .  S
O1424      H1443   0.991       .  S
O1424      H1447   0.990       .  S
O1425      H1439   0.990       .  S
O1425      H1446   0.990       .  S
O1426      C1430   1.286       .  A
O1427      C1430   1.325       .  A
O1428      H1438   0.990       .  S
O1429      H1442   0.991       .  S
C1430      C1600   1.566       .  S
Zr1453     O1454   2.450       .  S
Zr1453     O1455   2.448       .  S
Zr1453     O1456   2.398       .  S
Zr1453     O1459   2.384       .  S
Zr1453     O1461   2.361       .  S
Zr1453     O1462   2.381       .  S
Zr1453     O1463   2.408       .  S
Zr1453     O1464   2.324       .  S
O1454      H1510   0.990       .  S
O1454      H1518   0.988       .  S
O1455      C1475   1.283       .  A
O1456      C1477   1.277       .  A
O1457     Zr1467   2.653       .  S
O1457      C1476   1.321       .  A
O1458     Zr1466   2.425       .  S
O1458      C1477   1.281       .  A
O1459      C1476   1.260       .  A
O1460     Zr1468   2.421       .  S
O1460      C1475   1.279       .  A
O1461     Zr1466   2.389       .  S
O1461     Zr1468   2.379       .  S
O1462     Zr1467   2.419       .  S
O1462     Zr1468   2.406       .  S
O1462      H1497   0.970       .  S
O1463     Zr1466   2.400       .  S
O1463     Zr1483   2.421       .  S
O1463      H1500   0.966       .  S
O1464     Zr1467   2.290       .  S
O1464     Zr1483   2.318       .  S
Zr1465     O1490   2.442       .  S
Zr1465     O1484   2.450       .  S
Zr1465     O1492   2.444       .  S
Zr1465     O1480   2.437       .  S
Zr1465     O1471   2.387       .  S
Zr1465     O1472   2.427       .  S
Zr1465     O1473   2.377       .  S
Zr1465     O1474   2.406       .  S
Zr1466     O1485   2.435       .  S
Zr1466     O1478   2.437       .  S
Zr1466     O1479   2.395       .  S
Zr1466     O1472   2.399       .  S
Zr1466     O1473   2.394       .  S
Zr1467     O1469   2.436       .  S
Zr1467     O1491   2.436       .  S
Zr1467     O1493   2.643       .  S
Zr1467     O1471   2.382       .  S
Zr1467     O1474   2.430       .  S
Zr1468     O1494   2.436       .  S
Zr1468     O1495   2.434       .  S
Zr1468     O1470   2.439       .  S
Zr1468     O1471   2.372       .  S
Zr1468     O1472   2.415       .  S
O1469      H1506   0.990       .  S
O1470      H1501   0.990       .  S
O1470      H1515   0.990       .  S
O1472      H1498   0.968       .  S
O1473     Zr1483   2.328       .  S
O1474     Zr1483   2.395       .  S
O1474      H1499   0.969       .  S
C1475      C2527   1.481       .  S
C1476      C1603   1.562       .  S
C1477      C2356   1.463       .  S
O1478      H1514   0.990       .  S
O1479      C1481   1.275       .  A
O1480      C1481   1.278       .  A
C1481      C1964   1.466       .  S
O1482     Zr1483   2.440       .  S
O1482      H1511   0.991       .  S
Zr1483     O1486   2.442       .  S
Zr1483     O1487   2.440       .  S
Zr1483     O1488   2.473       .  S
O1484      C1489   1.283       .  A
O1485      H1502   0.991       .  S
O1485      H1517   0.990       .  S
O1486      H1503   0.991       .  S
O1487      H1507   0.990       .  S
O1487      H1516   0.989       .  S
O1488      C1489   1.288       .  A
C1489      C1978   1.505       .  S
O1490      H1509   0.990       .  S
O1490      H1513   0.990       .  S
O1491      H1505   0.990       .  S
O1491      H1512   0.990       .  S
O1492      C1496   1.283       .  A
O1493      C1496   1.329       .  A
O1494      H1504   0.990       .  S
O1495      H1508   0.990       .  S
C1496      C1631   1.558       .  S
Zr1519     O1520   2.438   1_455  S
Zr1519     O1521   2.435       .  S
Zr1519     O1522   2.381       .  S
Zr1519     O1525   2.364       .  S
Zr1519     O1527   2.350       .  S
Zr1519     O1528   2.377       .  S
Zr1519     O1529   2.435       .  S
Zr1519     O1530   2.434       .  S
O1520      H1576   0.989       .  S
O1520      H1584   0.990       .  S
O1521      C1541   1.282       .  A
O1522      C1543   1.267       .  A
O1523     Zr1533   2.663       .  S
O1523      C1542   1.324       .  A
O1524     Zr1532   2.422       .  S
O1524      C1543   1.277       .  A
O1525      C1542   1.254       .  A
O1526     Zr1534   2.432       .  S
O1526      C1541   1.280       .  A
O1527     Zr1532   2.379       .  S
O1527     Zr1534   2.357       .  S
O1528     Zr1533   2.418       .  S
O1528     Zr1534   2.398       .  S
O1528      H1563   0.965       .  S
O1529     Zr1532   2.400       .  S
O1529     Zr1549   2.442       .  S
O1529      H1566   0.962       .  S
O1530     Zr1533   2.371       .  S
O1530     Zr1549   2.405       .  S
Zr1531     O1556   2.442       .  S
Zr1531     O1550   2.474       .  S
Zr1531     O1558   2.489       .  S
Zr1531     O1546   2.450       .  S
Zr1531     O1537   2.396       .  S
Zr1531     O1538   2.425       .  S
Zr1531     O1539   2.372       .  S
Zr1531     O1540   2.399       .  S
Zr1532     O1551   2.431       .  S
Zr1532     O1544   2.436       .  S
Zr1532     O1545   2.392       .  S
Zr1532     O1538   2.411       .  S
Zr1532     O1539   2.386       .  S
Zr1533     O1535   2.436       .  S
Zr1533     O1557   2.435       .  S
Zr1533     O1559   2.605       .  S
Zr1533     O1537   2.411       .  S
Zr1533     O1540   2.430       .  S
Zr1534     O1560   2.434       .  S
Zr1534     O1561   2.432       .  S
Zr1534     O1536   2.442       .  S
Zr1534     O1537   2.394       .  S
Zr1534     O1538   2.418       .  S
O1535      H1572   0.990       .  S
O1536      H1567   0.990       .  S
O1536      H1581   0.989       .  S
O1538      H1564   0.972       .  S
O1539     Zr1549   2.324       .  S
O1540     Zr1549   2.395       .  S
O1540      H1565   0.964       .  S
C1541      C1645   1.486       .  S
C1542      C1617   1.554   1_455  S
C1543      C1743   1.464   1_455  S
O1544      H1580   0.990       .  S
O1545      C1547   1.272       .  A
O1546      C1547   1.288       .  A
C1547      C1869   1.465       .  S
O1548     Zr1549   2.437       .  S
O1548      H1577   0.990       .  S
Zr1549     O1552   2.435       .  S
Zr1549     O1553   2.440       .  S
Zr1549     O1554   2.499       .  S
O1550      C1555   1.291       .  A
O1551      H1568   0.987       .  S
O1551      H1583   0.989       .  S
O1552      H1569   0.990       .  S
O1553      H1573   0.990       .  S
O1553      H1582   0.990       .  S
O1554      C1555   1.294       .  A
C1555      C1785   1.533       .  S
O1556      H1575   0.987       .  S
O1556      H1579   0.990       .  S
O1557      H1571   0.990       .  S
O1557      H1578   0.990       .  S
O1558      C1562   1.295       .  A
O1559      C1562   1.319       .  A
O1560      H1570   0.990       .  S
O1561      H1574   0.990       .  S
C1562      C1586   1.567       .  S
C1585      C1586   1.423       .  A
C1585      C1590   1.449       .  A
C1585      H1592   1.082       .  S
C1586      C1587   1.421       .  A
C1587      C1588   1.423       .  A
C1587      N1594   1.420       .  S
C1588      C1589   1.413       .  A
C1588      H1593   1.084       .  S
C1589      C1590   1.424       .  A
C1590      N1591   1.423       .  S
N1591      O1595   1.260       .  A
N1591      O1596   1.262       .  A
N1594      O1598   1.260       .  A
N1594      O1597   1.261       .  A
C1599      C1600   1.421       .  A
C1599      C1604   1.447       .  A
C1599      H1606   1.083       .  S
C1600      C1601   1.420       .  A
C1601      C1602   1.429       .  A
C1601      N1608   1.418       .  S
C1602      C1603   1.414       .  A
C1602      H1607   1.083       .  S
C1603      C1604   1.426       .  A
C1604      N1605   1.418       .  S
N1605      O1609   1.260       .  A
N1605      O1610   1.262       .  A
N1608      O1612   1.260       .  A
N1608      O1611   1.261       .  A
C1613      C1614   1.411       .  A
C1613      C1618   1.424       .  A
C1613      H1620   1.078       .  S
C1614      C1615   1.430       .  A
C1615      C1616   1.443       .  A
C1615      N1622   1.426       .  S
C1616      C1617   1.422       .  A
C1616      H1621   1.080       .  S
C1617      C1618   1.428       .  A
C1618      N1619   1.428       .  S
N1619      O1623   1.262       .  A
N1619      O1624   1.262       .  A
N1622      O1626   1.262       .  A
N1622      O1625   1.262       .  A
C1627      C1628   1.413       .  A
C1627      C1632   1.434       .  A
C1627      H1634   1.080       .  S
C1628      C1629   1.419       .  A
C1629      C1630   1.437       .  A
C1629      N1636   1.428       .  S
C1630      C1631   1.422       .  A
C1630      H1635   1.081       .  S
C1631      C1632   1.430       .  A
C1632      N1633   1.426       .  S
N1633      O1637   1.262       .  A
N1633      O1638   1.262       .  A
N1636      O1640   1.262       .  A
N1636      O1639   1.262       .  A
C1641      C1642   1.403       .  A
C1641      C1646   1.401       .  A
C1641      H1648   1.084       .  S
C1642      C1643   1.418       .  A
C1643      C1644   1.403       .  A
C1643      N1650   1.428   1_455  S
C1644      C1645   1.402       .  A
C1644      H1649   1.084       .  S
C1645      C1646   1.413       .  A
C1646      N1647   1.427       .  S
N1647      O1651   1.262       .  A
N1647      O1652   1.262       .  A
N1650      O1654   1.262       .  A
N1650      O1653   1.262       .  A
C1655      C1656   1.406       .  A
C1655      C1660   1.392       .  A
C1655      H1662   1.084       .  S
C1656      C1657   1.405       .  A
C1657      C1658   1.383       .  A
C1657      N1664   1.428       .  S
C1658      C1659   1.401       .  A
C1658      H1663   1.080       .  S
C1659      C1660   1.409       .  A
C1660      N1661   1.427       .  S
N1661      O1665   1.262       .  A
N1661      O1666   1.262       .  A
N1664      O1668   1.262       .  A
N1664      O1667   1.262       .  A
C1669      C1670   1.413   1_655  A
C1669      C1674   1.429       .  A
C1669      H1676   1.082       .  S
C1670      C1671   1.426       .  A
C1671      C1672   1.432       .  A
C1671      N1678   1.426       .  S
C1672      C1673   1.414   1_455  A
C1672      H1677   1.080       .  S
C1673      C1674   1.425       .  A
C1674      N1675   1.427       .  S
N1675      O1679   1.262       .  A
N1675      O1680   1.262       .  A
N1678      O1682   1.262       .  A
N1678      O1681   1.262       .  A
C1683      C1684   1.408       .  A
C1683      C1688   1.429       .  A
C1683      H1690   1.076       .  S
C1684      C1685   1.420       .  A
C1685      C1686   1.436       .  A
C1685      N1692   1.428       .  S
C1686      C1687   1.423       .  A
C1686      H1691   1.083       .  S
C1687      C1688   1.427       .  A
C1688      N1689   1.426       .  S
N1689      O1693   1.262       .  A
N1689      O1694   1.262       .  A
N1692      O1696   1.262       .  A
N1692      O1695   1.262       .  A
C1697      C1698   1.406       .  A
C1697      C1702   1.418       .  A
C1697      H1704   1.084       .  S
C1698      C1699   1.421       .  A
C1699      C1700   1.418       .  A
C1699      N1706   1.426       .  S
C1700      C1701   1.407       .  A
C1700      H1705   1.084       .  S
C1701      C1702   1.421       .  A
C1702      N1703   1.426       .  S
N1703      O1707   1.261       .  A
N1703      O1708   1.259       .  A
N1706      O1710   1.259       .  A
N1706      O1709   1.262       .  A
C1711      C1712   1.410   1_455  A
C1711      C1716   1.419       .  A
C1711      H1718   1.080       .  S
C1712      C1713   1.428       .  A
C1713      C1714   1.441       .  A
C1713      N1720   1.426       .  S
C1714      C1715   1.420       .  A
C1714      H1719   1.078       .  S
C1715      C1716   1.425   1_655  A
C1716      N1717   1.428       .  S
N1717      O1721   1.262       .  A
N1717      O1722   1.262       .  A
N1720      O1724   1.262       .  A
N1720      O1723   1.262       .  A
C1725      C1726   1.422       .  A
C1725      C1730   1.441       .  A
C1725      H1732   1.083       .  S
C1726      C1727   1.424       .  A
C1727      C1728   1.422       .  A
C1727      N1734   1.427       .  S
C1728      C1729   1.412       .  A
C1728      H1733   1.083       .  S
C1729      C1730   1.426       .  A
C1730      N1731   1.426   1_455  S
N1731      O1735   1.262       .  A
N1731      O1736   1.262       .  A
N1734      O1738   1.262       .  A
N1734      O1737   1.262       .  A
C1739      C1740   1.393       .  A
C1739      C1744   1.384       .  A
C1739      H1746   1.084       .  S
C1740      C1741   1.419   1_655  A
C1741      C1742   1.387   1_455  A
C1741      N1748   1.427       .  S
C1742      C1743   1.394       .  A
C1742      H1747   1.083       .  S
C1743      C1744   1.411       .  A
C1744      N1745   1.422       .  S
N1745      O1749   1.260       .  A
N1745      O1750   1.262       .  A
N1748      O1752   1.262       .  A
N1748      O1751   1.262   1_455  A
C1753      C1754   1.407   1_565  A
C1753      C1758   1.407       .  A
C1753      H1760   1.084       .  S
C1754      C1755   1.425       .  A
C1755      C1756   1.402   1_545  A
C1755      N1762   1.431       .  S
C1756      C1757   1.400       .  A
C1756      H1761   1.085       .  S
C1757      C1758   1.411       .  A
C1758      N1759   1.425       .  S
N1759      O1763   1.262       .  A
N1759      O1764   1.262       .  A
N1762      O1766   1.262       .  A
N1762      O1765   1.262       .  A
C1767      C1768   1.410       .  A
C1767      C1772   1.388       .  A
C1767      H1774   1.084       .  S
C1768      C1769   1.414       .  A
C1769      C1770   1.394       .  A
C1769      N1776   1.427       .  S
C1770      C1771   1.401       .  A
C1770      H1775   1.084       .  S
C1771      C1772   1.403       .  A
C1772      N1773   1.428       .  S
N1773      O1777   1.262       .  A
N1773      O1778   1.262       .  A
N1776      O1780   1.262       .  A
N1776      O1779   1.259       .  A
C1781      C1782   1.401       .  A
C1781      C1786   1.423       .  A
C1781      H1788   1.083       .  S
C1782      C1783   1.417       .  A
C1783      C1784   1.425       .  A
C1783      N1790   1.427       .  S
C1784      C1785   1.414       .  A
C1784      H1789   1.083       .  S
C1785      C1786   1.428       .  A
C1786      N1787   1.436       .  S
N1787      O1791   1.261       .  A
N1787      O1792   1.262       .  A
N1790      O1794   1.258       .  A
N1790      O1793   1.262       .  A
C1795      C1796   1.387       .  A
C1795      C1800   1.385       .  A
C1795      H1802   1.085       .  S
C1796      C1797   1.401       .  A
C1797      C1798   1.398       .  A
C1797      N1804   1.425       .  S
C1798      C1799   1.407       .  A
C1798      H1803   1.084       .  S
C1799      C1800   1.424       .  A
C1800      N1801   1.427       .  S
N1801      O1805   1.262       .  A
N1801      O1806   1.262       .  A
N1804      O1808   1.261       .  A
N1804      O1807   1.261       .  A
C1809      C1810   1.404       .  A
C1809      C1814   1.404       .  A
C1809      H1816   1.084       .  S
C1810      C1811   1.416       .  A
C1811      C1812   1.399       .  A
C1811      N1818   1.427       .  S
C1812      C1813   1.401       .  A
C1812      H1817   1.084       .  S
C1813      C1814   1.418       .  A
C1814      N1815   1.429       .  S
N1815      O1819   1.261       .  A
N1815      O1820   1.262       .  A
N1818      O1822   1.262       .  A
N1818      O1821   1.262       .  A
C1823      C1824   1.401       .  A
C1823      C1828   1.421       .  A
C1823      H1830   1.083       .  S
C1824      C1825   1.406       .  A
C1825      C1826   1.408       .  A
C1825      N1832   1.418       .  S
C1826      C1827   1.410       .  A
C1826      H1831   1.084       .  S
C1827      C1828   1.428       .  A
C1828      N1829   1.425       .  S
N1829      O1833   1.262       .  A
N1829      O1834   1.261       .  A
N1832      O1836   1.255       .  A
N1832      O1835   1.262       .  A
C1837      C1838   1.410   1_545  A
C1837      C1842   1.433   1_545  A
C1837      H1844   1.083       .  S
C1838      C1839   1.429       .  A
C1839      C1840   1.426       .  A
C1839      N1846   1.420       .  S
C1840      C1841   1.403       .  A
C1840      H1845   1.083       .  S
C1841      C1842   1.434       .  A
C1842      N1843   1.429   1_565  S
N1843      O1847   1.262       .  A
N1843      O1848   1.262   1_545  A
N1846      O1850   1.259       .  A
N1846      O1849   1.259       .  A
C1851      C1852   1.408       .  A
C1851      C1856   1.437       .  A
C1851      H1858   1.083       .  S
C1852      C1853   1.427       .  A
C1853      C1854   1.421       .  A
C1853      N1860   1.423   1_545  S
C1854      C1855   1.408       .  A
C1854      H1859   1.084   1_545  S
C1855      C1856   1.431       .  A
C1856      N1857   1.418       .  S
N1857      O1861   1.261       .  A
N1857      O1862   1.261       .  A
N1860      O1864   1.262   1_565  A
N1860      O1863   1.262       .  A
C1865      C1866   1.394       .  A
C1865      C1870   1.389       .  A
C1865      H1872   1.084       .  S
C1866      C1867   1.414       .  A
C1867      C1868   1.386       .  A
C1867      N1874   1.427       .  S
C1868      C1869   1.396       .  A
C1868      H1873   1.084       .  S
C1869      C1870   1.420       .  A
C1870      N1871   1.425       .  S
N1871      O1875   1.262       .  A
N1871      O1876   1.262       .  A
N1874      O1878   1.262       .  A
N1874      O1877   1.261       .  A
C1879      C1880   1.408       .  A
C1879      C1884   1.399       .  A
C1879      H1886   1.084       .  S
C1880      C1881   1.422       .  A
C1881      C1882   1.392       .  A
C1881      N1888   1.426       .  S
C1882      C1883   1.393       .  A
C1882      H1887   1.085       .  S
C1883      C1884   1.402       .  A
C1884      N1885   1.427       .  S
N1885      O1889   1.262       .  A
N1885      O1890   1.263       .  A
N1888      O1892   1.262   1_545  A
N1888      O1891   1.262       .  A
C1893      C1894   1.423       .  A
C1893      C1898   1.445       .  A
C1893      H1900   1.083       .  S
C1894      C1895   1.428       .  A
C1895      C1896   1.422       .  A
C1895      N1902   1.422       .  S
C1896      C1897   1.405       .  A
C1896      H1901   1.084       .  S
C1897      C1898   1.421       .  A
C1898      N1899   1.420       .  S
N1899      O1903   1.261       .  A
N1899      O1904   1.262       .  A
N1902      O1906   1.262       .  A
N1902      O1905   1.261   1_565  A
C1907      C1908   1.411   1_545  A
C1907      C1912   1.424       .  A
C1907      H1914   1.081       .  S
C1908      C1909   1.428       .  A
C1909      C1910   1.442       .  A
C1909      N1916   1.425       .  S
C1910      C1911   1.418   1_565  A
C1910      H1915   1.081       .  S
C1911      C1912   1.429       .  A
C1912      N1913   1.428       .  S
N1913      O1917   1.262       .  A
N1913      O1918   1.262       .  A
N1916      O1920   1.262       .  A
N1916      O1919   1.262       .  A
C1921      C1922   1.410       .  A
C1921      C1926   1.418       .  A
C1921      H1928   1.083       .  S
C1922      C1923   1.423       .  A
C1923      C1924   1.408       .  A
C1923      N1930   1.429       .  S
C1924      C1925   1.406       .  A
C1924      H1929   1.084       .  S
C1925      C1926   1.418       .  A
C1926      N1927   1.426       .  S
N1927      O1931   1.262       .  A
N1927      O1932   1.262       .  A
N1930      O1934   1.261       .  A
N1930      O1933   1.260       .  A
C1935      C1936   1.395       .  A
C1935      C1940   1.387       .  A
C1935      H1942   1.085       .  S
C1936      C1937   1.395       .  A
C1937      C1938   1.390       .  A
C1937      N1944   1.430       .  S
C1938      C1939   1.409       .  A
C1938      H1943   1.084       .  S
C1939      C1940   1.407       .  A
C1940      N1941   1.426       .  S
N1941      O1945   1.262       .  A
N1941      O1946   1.262       .  A
N1944      O1948   1.262       .  A
N1944      O1947   1.262       .  A
C1949      C1950   1.402       .  A
C1949      C1954   1.404       .  A
C1949      H1956   1.084       .  S
C1950      C1951   1.417       .  A
C1951      C1952   1.399       .  A
C1951      N1958   1.426       .  S
C1952      C1953   1.397       .  A
C1952      H1957   1.084       .  S
C1953      C1954   1.414       .  A
C1954      N1955   1.427       .  S
N1955      O1959   1.262       .  A
N1955      O1960   1.262       .  A
N1958      O1962   1.261       .  A
N1958      O1961   1.260       .  A
C1963      C1964   1.409       .  A
C1963      C1968   1.386       .  A
C1963      H1970   1.084       .  S
C1964      C1965   1.408       .  A
C1965      C1966   1.391       .  A
C1965      N1972   1.429       .  S
C1966      C1967   1.401       .  A
C1966      H1971   1.081       .  S
C1967      C1968   1.401       .  A
C1968      N1969   1.428       .  S
N1969      O1973   1.262       .  A
N1969      O1974   1.262       .  A
N1972      O1976   1.261       .  A
N1972      O1975   1.262       .  A
C1977      C1978   1.405       .  A
C1977      C1982   1.412       .  A
C1977      H1984   1.082       .  S
C1978      C1979   1.413       .  A
C1979      C1980   1.412       .  A
C1979      N1986   1.426       .  S
C1980      C1981   1.409       .  A
C1980      H1985   1.084       .  S
C1981      C1982   1.419       .  A
C1982      N1983   1.427       .  S
N1983      O1987   1.261       .  A
N1983      O1988   1.262       .  A
N1986      O1990   1.262       .  A
N1986      O1989   1.261       .  A
C1991      C1992   1.399       .  A
C1991      C1996   1.403       .  A
C1991      H1998   1.084       .  S
C1992      C1993   1.410       .  A
C1993      C1994   1.410       .  A
C1993      N2000   1.429       .  S
C1994      C1995   1.411       .  A
C1994      H1999   1.082       .  S
C1995      C1996   1.419       .  A
C1996      N1997   1.427       .  S
N1997      O2001   1.262       .  A
N1997      O2002   1.262       .  A
N2000      O2004   1.262       .  A
N2000      O2003   1.260       .  A
C2005      C2006   1.414       .  A
C2005      C2010   1.428       .  A
C2005      H2012   1.081       .  S
C2006      C2007   1.428       .  A
C2007      C2008   1.428       .  A
C2007      N2014   1.427       .  S
C2008      C2009   1.411       .  A
C2008      H2013   1.080       .  S
C2009      C2010   1.423       .  A
C2010      N2011   1.426       .  S
N2011      O2015   1.262       .  A
N2011      O2016   1.262       .  A
N2014      O2018   1.262       .  A
N2014      O2017   1.262       .  A
C2019      C2020   1.409       .  A
C2019      C2024   1.425       .  A
C2019      H2026   1.079       .  S
C2020      C2021   1.425       .  A
C2021      C2022   1.432       .  A
C2021      N2028   1.426       .  S
C2022      C2023   1.415       .  A
C2022      H2027   1.079       .  S
C2023      C2024   1.427       .  A
C2024      N2025   1.427       .  S
N2025      O2029   1.262       .  A
N2025      O2030   1.261       .  A
N2028      O2032   1.262       .  A
N2028      O2031   1.262       .  A
C2033      C2034   1.416       .  A
C2033      C2038   1.395       .  A
C2033      H2040   1.084       .  S
C2034      C2035   1.411       .  A
C2035      C2036   1.393       .  A
C2035      N2042   1.426       .  S
C2036      C2037   1.399       .  A
C2036      H2041   1.084       .  S
C2037      C2038   1.391       .  A
C2038      N2039   1.429       .  S
N2039      O2043   1.261       .  A
N2039      O2044   1.262       .  A
N2042      O2046   1.262       .  A
N2042      O2045   1.262       .  A
C2047      C2048   1.397       .  A
C2047      C2052   1.386       .  A
C2047      H2054   1.085       .  S
C2048      C2049   1.404       .  A
C2049      C2050   1.389       .  A
C2049      N2056   1.428       .  S
C2050      C2051   1.402       .  A
C2050      H2055   1.085       .  S
C2051      C2052   1.409       .  A
C2052      N2053   1.430       .  S
N2053      O2057   1.261       .  A
N2053      O2058   1.261       .  A
N2056      O2060   1.261       .  A
N2056      O2059   1.262       .  A
C2061      C2062   1.420       .  A
C2061      C2066   1.439       .  A
C2061      H2068   1.083       .  S
C2062      C2063   1.427       .  A
C2063      C2064   1.420       .  A
C2063      N2070   1.419       .  S
C2064      C2065   1.402       .  A
C2064      H2069   1.084       .  S
C2065      C2066   1.419       .  A
C2066      N2067   1.419   1_556  S
N2067      O2071   1.260       .  A
N2067      O2072   1.261       .  A
N2070      O2074   1.262       .  A
N2070      O2073   1.262       .  A
C2075      C2076   1.406       .  A
C2075      C2080   1.417       .  A
C2075      H2082   1.085       .  S
C2076      C2077   1.432       .  A
C2077      C2078   1.438       .  A
C2077      N2084   1.419       .  S
C2078      C2079   1.410       .  A
C2078      H2083   1.083       .  S
C2079      C2080   1.425       .  A
C2080      N2081   1.422       .  S
N2081      O2085   1.262       .  A
N2081      O2086   1.262       .  A
N2084      O2088   1.262       .  A
N2084      O2087   1.262       .  A
C2089      C2090   1.403       .  A
C2089      C2094   1.405   1_556  A
C2089      H2096   1.084       .  S
C2090      C2091   1.414       .  A
C2091      C2092   1.403       .  A
C2091      N2098   1.428       .  S
C2092      C2093   1.406   1_556  A
C2092      H2097   1.084       .  S
C2093      C2094   1.416       .  A
C2094      N2095   1.428       .  S
N2095      O2099   1.261       .  A
N2095      O2100   1.260       .  A
N2098      O2102   1.262       .  A
N2098      O2101   1.262       .  A
C2103      C2104   1.398       .  A
C2103      C2108   1.397       .  A
C2103      H2110   1.084       .  S
C2104      C2105   1.428       .  A
C2105      C2106   1.416       .  A
C2105      N2112   1.426       .  S
C2106      C2107   1.400       .  A
C2106      H2111   1.084       .  S
C2107      C2108   1.410       .  A
C2108      N2109   1.415       .  S
N2109      O2113   1.261       .  A
N2109      O2114   1.260       .  A
N2112      O2116   1.262       .  A
N2112      O2115   1.262       .  A
C2117      C2118   1.403       .  A
C2117      C2122   1.394       .  A
C2117      H2124   1.084       .  S
C2118      C2119   1.404       .  A
C2119      C2120   1.390       .  A
C2119      N2126   1.427       .  S
C2120      C2121   1.403       .  A
C2120      H2125   1.084       .  S
C2121      C2122   1.405       .  A
C2122      N2123   1.426       .  S
N2123      O2127   1.261       .  A
N2123      O2128   1.261       .  A
N2126      O2130   1.261       .  A
N2126      O2129   1.262       .  A
C2131      C2132   1.402       .  A
C2131      C2136   1.397       .  A
C2131      H2138   1.085       .  S
C2132      C2133   1.402       .  A
C2133      C2134   1.389       .  A
C2133      N2140   1.427       .  S
C2134      C2135   1.404       .  A
C2134      H2139   1.084       .  S
C2135      C2136   1.415       .  A
C2136      N2137   1.429       .  S
N2137      O2141   1.262       .  A
N2137      O2142   1.261       .  A
N2140      O2144   1.262       .  A
N2140      O2143   1.262       .  A
C2145      C2146   1.405       .  A
C2145      C2150   1.406       .  A
C2145      H2152   1.084       .  S
C2146      C2147   1.414       .  A
C2147      C2148   1.413       .  A
C2147      N2154   1.426       .  S
C2148      C2149   1.408       .  A
C2148      H2153   1.084       .  S
C2149      C2150   1.415       .  A
C2150      N2151   1.427       .  S
N2151      O2155   1.261       .  A
N2151      O2156   1.262       .  A
N2154      O2158   1.262       .  A
N2154      O2157   1.261       .  A
C2159      C2160   1.415   1_554  A
C2159      C2164   1.429       .  A
C2159      H2166   1.081       .  S
C2160      C2161   1.422       .  A
C2161      C2162   1.426       .  A
C2161      N2168   1.426       .  S
C2162      C2163   1.413   1_556  A
C2162      H2167   1.081       .  S
C2163      C2164   1.422       .  A
C2164      N2165   1.427       .  S
N2165      O2169   1.262       .  A
N2165      O2170   1.262       .  A
N2168      O2172   1.262       .  A
N2168      O2171   1.262       .  A
C2173      C2174   1.397       .  A
C2173      C2178   1.386       .  A
C2173      H2180   1.084   1_554  S
C2174      C2175   1.415       .  A
C2175      C2176   1.389       .  A
C2175      N2182   1.426       .  S
C2176      C2177   1.397       .  A
C2176      H2181   1.084       .  S
C2177      C2178   1.419       .  A
C2178      N2179   1.429   1_554  S
N2179      O2183   1.262   1_556  A
N2179      O2184   1.262       .  A
N2182      O2186   1.261       .  A
N2182      O2185   1.261       .  A
C2187      C2188   1.399       .  A
C2187      C2192   1.404       .  A
C2187      H2194   1.084       .  S
C2188      C2189   1.413       .  A
C2189      C2190   1.405       .  A
C2189      N2196   1.427   1_554  S
C2190      C2191   1.405       .  A
C2190      H2195   1.084       .  S
C2191      C2192   1.423       .  A
C2192      N2193   1.428       .  S
N2193      O2197   1.262       .  A
N2193      O2198   1.262       .  A
N2196      O2200   1.261       .  A
N2196      O2199   1.262       .  A
C2201      C2202   1.412       .  A
C2201      C2206   1.430       .  A
C2201      H2208   1.082       .  S
C2202      C2203   1.423       .  A
C2203      C2204   1.429       .  A
C2203      N2210   1.427       .  S
C2204      C2205   1.415       .  A
C2204      H2209   1.082       .  S
C2205      C2206   1.428       .  A
C2206      N2207   1.427       .  S
N2207      O2211   1.262       .  A
N2207      O2212   1.262       .  A
N2210      O2214   1.262       .  A
N2210      O2213   1.262       .  A
C2215      C2216   1.395       .  A
C2215      C2220   1.376       .  A
C2215      H2222   1.082       .  S
C2216      C2217   1.403       .  A
C2217      C2218   1.397       .  A
C2217      N2224   1.428       .  S
C2218      C2219   1.409       .  A
C2218      H2223   1.084       .  S
C2219      C2220   1.407       .  A
C2220      N2221   1.428       .  S
N2221      O2225   1.262       .  A
N2221      O2226   1.262       .  A
N2224      O2228   1.261       .  A
N2224      O2227   1.260       .  A
C2229      C2230   1.403       .  A
C2229      C2234   1.406       .  A
C2229      H2236   1.079       .  S
C2230      C2231   1.416       .  A
C2231      C2232   1.417       .  A
C2231      N2238   1.427       .  S
C2232      C2233   1.412       .  A
C2232      H2237   1.084       .  S
C2233      C2234   1.415       .  A
C2234      N2235   1.427       .  S
N2235      O2239   1.261       .  A
N2235      O2240   1.262       .  A
N2238      O2242   1.262       .  A
N2238      O2241   1.261       .  A
C2243      C2244   1.403       .  A
C2243      C2248   1.406       .  A
C2243      H2250   1.084       .  S
C2244      C2245   1.416       .  A
C2245      C2246   1.403       .  A
C2245      N2252   1.426       .  S
C2246      C2247   1.401       .  A
C2246      H2251   1.084   1_655  S
C2247      C2248   1.414       .  A
C2248      N2249   1.427       .  S
N2249      O2253   1.261       .  A
N2249      O2254   1.262       .  A
N2252      O2256   1.262       .  A
N2252      O2255   1.262   1_655  A
C2257      C2258   1.424       .  A
C2257      C2262   1.434       .  A
C2257      H2264   1.082       .  S
C2258      C2259   1.425       .  A
C2259      C2260   1.422       .  A
C2259      N2266   1.426   1_556  S
C2260      C2261   1.407       .  A
C2260      H2265   1.080       .  S
C2261      C2262   1.411       .  A
C2262      N2263   1.427       .  S
N2263      O2267   1.262       .  A
N2263      O2268   1.262       .  A
N2266      O2270   1.260       .  A
N2266      O2269   1.262   1_554  A
C2271      C2272   1.408       .  A
C2271      C2276   1.423       .  A
C2271      H2278   1.077       .  S
C2272      C2273   1.429   1_554  A
C2273      C2274   1.434       .  A
C2273      N2280   1.426       .  S
C2274      C2275   1.410   1_556  A
C2274      H2279   1.076       .  S
C2275      C2276   1.427       .  A
C2276      N2277   1.428       .  S
N2277      O2281   1.262       .  A
N2277      O2282   1.262       .  A
N2280      O2284   1.262       .  A
N2280      O2283   1.262       .  A
C2285      C2286   1.403       .  A
C2285      C2290   1.391       .  A
C2285      H2292   1.084       .  S
C2286      C2287   1.406   1_556  A
C2287      C2288   1.391       .  A
C2287      N2294   1.427       .  S
C2288      C2289   1.399       .  A
C2288      H2293   1.084       .  S
C2289      C2290   1.403   1_554  A
C2290      N2291   1.427       .  S
N2291      O2295   1.262       .  A
N2291      O2296   1.262       .  A
N2294      O2298   1.262       .  A
N2294      O2297   1.262       .  A
C2299      C2300   1.409       .  A
C2299      C2304   1.386       .  A
C2299      H2306   1.079       .  S
C2300      C2301   1.409       .  A
C2301      C2302   1.387       .  A
C2301      N2308   1.427       .  S
C2302      C2303   1.401       .  A
C2302      H2307   1.085       .  S
C2303      C2304   1.400       .  A
C2304      N2305   1.429       .  S
N2305      O2309   1.262       .  A
N2305      O2310   1.262   1_655  A
N2308      O2312   1.262       .  A
N2308      O2311   1.262       .  A
C2313      C2314   1.404       .  A
C2313      C2318   1.402       .  A
C2313      H2320   1.084       .  S
C2314      C2315   1.416       .  A
C2315      C2316   1.406       .  A
C2315      N2322   1.428       .  S
C2316      C2317   1.405       .  A
C2316      H2321   1.084       .  S
C2317      C2318   1.413       .  A
C2318      N2319   1.427       .  S
N2319      O2323   1.261       .  A
N2319      O2324   1.262       .  A
N2322      O2326   1.262       .  A
N2322      O2325   1.262       .  A
C2327      C2328   1.408       .  A
C2327      C2332   1.413       .  A
C2327      H2334   1.084       .  S
C2328      C2329   1.415       .  A
C2329      C2330   1.413       .  A
C2329      N2336   1.427       .  S
C2330      C2331   1.408       .  A
C2330      H2335   1.084       .  S
C2331      C2332   1.417       .  A
C2332      N2333   1.427       .  S
N2333      O2337   1.262       .  A
N2333      O2338   1.262       .  A
N2336      O2340   1.262       .  A
N2336      O2339   1.261       .  A
C2341      C2342   1.404       .  A
C2341      C2346   1.387       .  A
C2341      H2348   1.084       .  S
C2342      C2343   1.398       .  A
C2343      C2344   1.391       .  A
C2343      N2350   1.432       .  S
C2344      C2345   1.412       .  A
C2344      H2349   1.083       .  S
C2345      C2346   1.407       .  A
C2346      N2347   1.427       .  S
N2347      O2351   1.262       .  A
N2347      O2352   1.262       .  A
N2350      O2354   1.263       .  A
N2350      O2353   1.262       .  A
C2355      C2356   1.404       .  A
C2355      C2360   1.392       .  A
C2355      H2362   1.084       .  S
C2356      C2357   1.407       .  A
C2357      C2358   1.385       .  A
C2357      N2364   1.428       .  S
C2358      C2359   1.403       .  A
C2358      H2363   1.081       .  S
C2359      C2360   1.407       .  A
C2360      N2361   1.424       .  S
N2361      O2365   1.262       .  A
N2361      O2366   1.261       .  A
N2364      O2368   1.262       .  A
N2364      O2367   1.261       .  A
C2369      C2370   1.402       .  A
C2369      C2374   1.411       .  A
C2369      H2376   1.084       .  S
C2370      C2371   1.420       .  A
C2371      C2372   1.413       .  A
C2371      N2378   1.426       .  S
C2372      C2373   1.404       .  A
C2372      H2377   1.084       .  S
C2373      C2374   1.421       .  A
C2374      N2375   1.427       .  S
N2375      O2379   1.262       .  A
N2375      O2380   1.260       .  A
N2378      O2382   1.259       .  A
N2378      O2381   1.262       .  A
C2383      C2384   1.410       .  A
C2383      C2388   1.409       .  A
C2383      H2390   1.083       .  S
C2384      C2385   1.419       .  A
C2385      C2386   1.398       .  A
C2385      N2392   1.427       .  S
C2386      C2387   1.399       .  A
C2386      H2391   1.085       .  S
C2387      C2388   1.413       .  A
C2388      N2389   1.428       .  S
N2389      O2393   1.262       .  A
N2389      O2394   1.262       .  A
N2392      O2396   1.262       .  A
N2392      O2395   1.262       .  A
C2397      C2398   1.409       .  A
C2397      C2402   1.436       .  A
C2397      H2404   1.083       .  S
C2398      C2399   1.424       .  A
C2399      C2400   1.417       .  A
C2399      N2406   1.420       .  S
C2400      C2401   1.404       .  A
C2400      H2405   1.085       .  S
C2401      C2402   1.431       .  A
C2402      N2403   1.420       .  S
N2403      O2407   1.261       .  A
N2403      O2408   1.261       .  A
N2406      O2410   1.261       .  A
N2406      O2409   1.262       .  A
C2411      C2412   1.396       .  A
C2411      C2416   1.390       .  A
C2411      H2418   1.084       .  S
C2412      C2413   1.417       .  A
C2413      C2414   1.388       .  A
C2413      N2420   1.427       .  S
C2414      C2415   1.398       .  A
C2414      H2419   1.084       .  S
C2415      C2416   1.416       .  A
C2416      N2417   1.424       .  S
N2417      O2421   1.260       .  A
N2417      O2422   1.259       .  A
N2420      O2424   1.262       .  A
N2420      O2423   1.262       .  A
C2425      C2426   1.396       .  A
C2425      C2430   1.386       .  A
C2425      H2432   1.084       .  S
C2426      C2427   1.410       .  A
C2427      C2428   1.389       .  A
C2427      N2434   1.421       .  S
C2428      C2429   1.396       .  A
C2428      H2433   1.084       .  S
C2429      C2430   1.420       .  A
C2430      N2431   1.428       .  S
N2431      O2435   1.262       .  A
N2431      O2436   1.262       .  A
N2434      O2438   1.260       .  A
N2434      O2437   1.258       .  A
C2439      C2440   1.409       .  A
C2439      C2444   1.413       .  A
C2439      H2446   1.084       .  S
C2440      C2441   1.418       .  A
C2441      C2442   1.413       .  A
C2441      N2448   1.427       .  S
C2442      C2443   1.407       .  A
C2442      H2447   1.084       .  S
C2443      C2444   1.415       .  A
C2444      N2445   1.427       .  S
N2445      O2449   1.261       .  A
N2445      O2450   1.262       .  A
N2448      O2452   1.262       .  A
N2448      O2451   1.260       .  A
C2453      C2454   1.400       .  A
C2453      C2458   1.408       .  A
C2453      H2460   1.085       .  S
C2454      C2455   1.408       .  A
C2455      C2456   1.401       .  A
C2455      N2462   1.428       .  S
C2456      C2457   1.410       .  A
C2456      H2461   1.083       .  S
C2457      C2458   1.423       .  A
C2458      N2459   1.427       .  S
N2459      O2463   1.261   1_545  A
N2459      O2464   1.262       .  A
N2462      O2466   1.262       .  A
N2462      O2465   1.262       .  A
C2467      C2468   1.413       .  A
C2467      C2472   1.430       .  A
C2467      H2474   1.080       .  S
C2468      C2469   1.427       .  A
C2469      C2470   1.434       .  A
C2469      N2476   1.426       .  S
C2470      C2471   1.414       .  A
C2470      H2475   1.081       .  S
C2471      C2472   1.429       .  A
C2472      N2473   1.428       .  S
N2473      O2477   1.262       .  A
N2473      O2478   1.262       .  A
N2476      O2480   1.261       .  A
N2476      O2479   1.262       .  A
C2481      C2482   1.397       .  A
C2481      C2486   1.393       .  A
C2481      H2488   1.085       .  S
C2482      C2483   1.394       .  A
C2483      C2484   1.391       .  A
C2483      N2490   1.429       .  S
C2484      C2485   1.405       .  A
C2484      H2489   1.083       .  S
C2485      C2486   1.408       .  A
C2486      N2487   1.426       .  S
N2487      O2491   1.262       .  A
N2487      O2492   1.262       .  A
N2490      O2494   1.261       .  A
N2490      O2493   1.262       .  A
C2495      C2496   1.406       .  A
C2495      C2500   1.394   1_545  A
C2495      H2502   1.084   1_545  S
C2496      C2497   1.415       .  A
C2497      C2498   1.388       .  A
C2497      N2504   1.427       .  S
C2498      C2499   1.390       .  A
C2498      H2503   1.085       .  S
C2499      C2500   1.398   1_545  A
C2500      N2501   1.424       .  S
N2501      O2505   1.259       .  A
N2501      O2506   1.261       .  A
N2504      O2508   1.262       .  A
N2504      O2507   1.262       .  A
C2509      C2510   1.408       .  A
C2509      C2514   1.416       .  A
C2509      H2516   1.083       .  S
C2510      C2511   1.415       .  A
C2511      C2512   1.415       .  A
C2511      N2518   1.427       .  S
C2512      C2513   1.407       .  A
C2512      H2517   1.083       .  S
C2513      C2514   1.415       .  A
C2514      N2515   1.426       .  S
N2515      O2519   1.260       .  A
N2515      O2520   1.262       .  A
N2518      O2522   1.262       .  A
N2518      O2521   1.261       .  A
C2523      C2524   1.414       .  A
C2523      C2528   1.410       .  A
C2523      H2530   1.083       .  S
C2524      C2525   1.421       .  A
C2525      C2526   1.405       .  A
C2525      N2532   1.423       .  S
C2526      C2527   1.395       .  A
C2526      H2531   1.084       .  S
C2527      C2528   1.404       .  A
C2528      N2529   1.428       .  S
N2529      O2533   1.262       .  A
N2529      O2534   1.262       .  A
N2532      O2536   1.262       .  A
N2532      O2535   1.262       .  A
C2537      C2538   1.407       .  A
C2537      C2542   1.422       .  A
C2537      H2544   1.079       .  S
C2538      C2539   1.413       .  A
C2539      C2540   1.436       .  A
C2539      N2546   1.428       .  S
C2540      C2541   1.427       .  A
C2540      H2545   1.081       .  S
C2541      C2542   1.424       .  A
C2542      N2543   1.426       .  S
N2543      O2547   1.262       .  A
N2543      O2548   1.262       .  A
N2546      O2550   1.262       .  A
N2546      O2549   1.262       .  A
C2551      C2552   1.415       .  A
C2551      C2556   1.437       .  A
C2551      H2558   1.075       .  S
C2552      C2553   1.424       .  A
C2553      C2554   1.418       .  A
C2553      N2560   1.425       .  S
C2554      C2555   1.406       .  A
C2554      H2559   1.083       .  S
C2555      C2556   1.424       .  A
C2556      N2557   1.426       .  S
N2557      O2561   1.262       .  A
N2557      O2562   1.262       .  A
N2560      O2564   1.259       .  A
N2560      O2563   1.261       .  A
C2565      C2566   1.405       .  A
C2565      C2570   1.385       .  A
C2565      H2572   1.084       .  S
C2566      C2567   1.407       .  A
C2567      C2568   1.389       .  A
C2567      N2574   1.425       .  S
C2568      C2569   1.402       .  A
C2568      H2573   1.081       .  S
C2569      C2570   1.404       .  A
C2570      N2571   1.427       .  S
N2571      O2575   1.261       .  A
N2571      O2576   1.262       .  A
N2574      O2578   1.259       .  A
N2574      O2577   1.262       .  A
C2579      C2580   1.387       .  A
C2579      C2584   1.386       .  A
C2579      H2586   1.085       .  S
C2580      C2581   1.405       .  A
C2581      C2582   1.389       .  A
C2581      N2588   1.426       .  S
C2582      C2583   1.402       .  A
C2582      H2587   1.083       .  S
C2583      C2584   1.423       .  A
C2584      N2585   1.427       .  S
N2585      O2589   1.262       .  A
N2585      O2590   1.262       .  A
N2588      O2592   1.261       .  A
N2588      O2591   1.261       .  A
