geometry optimzed in LAMMPS
_audit_creation_date              2020-11-30 
_audit_creation_method            'lammps2cif' 
_symmetry_space_group_name_H-M    'P1' 
_symmetry_Int_Tables_number       1 
_symmetry_cell_setting            triclinic 
loop_ 
_symmetry_equiv_pos_as_xyz 
  x,y,z 
_cell_length_a                    42.95233776 
_cell_length_b                    43.01257737136056 
_cell_length_c                    42.75024832999664 
_cell_angle_alpha                 90.55481437401951 
_cell_angle_beta                  89.82353436905042 
_cell_angle_gamma                 89.75051260979579 
loop_ 
_atom_site_label 
_atom_site_type_symbol 
_atom_site_fract_x 
_atom_site_fract_y 
_atom_site_fract_z 
_atom_site_charge 
O1          O  0.24423387  0.56568065  0.34904710    -0.57400
C2          C  0.29632774  0.62663399  0.37904377     0.75300
O3          O  0.22703215  0.62999291  0.43538227    -0.58500
C4          C  0.22204026  0.54722970  0.35449895     0.75200
C5          C  0.27379860  0.54845403  0.45279683     0.77600
Cd6        Cd  0.24817328  0.58616594  0.40336269     1.37500
O7          O  0.26815917  0.62837259  0.37083079    -0.57400
O8          O  0.27730171  0.54139188  0.42421253    -0.56200
C9          C  0.19990286  0.62941829  0.42398327     0.77600
O10         O  0.25683675  0.57187397  0.45886171    -0.58500
O11         O  0.30282033  0.60516727  0.39796908    -0.57000
O12         O  0.21315885  0.54532970  0.38268511    -0.57000
O13         O  0.19464077  0.60767760  0.40462563    -0.56200
C14         C  0.06721923  0.76025174  0.43158438     0.80700
N15         N  0.08345799  0.73298832  0.43387944    -0.77600
C16         C  0.11498866  0.73306219  0.43695720     0.83100
N17         N  0.13021708  0.76048179  0.43743358    -0.77600
C18         C  0.11480875  0.78781549  0.43450807     0.83200
N19         N  0.08324566  0.78764604  0.43144999    -0.79300
C20         C  0.42953197  0.75213863  0.34719689     0.80700
N21         N  0.41335933  0.72503435  0.35017344    -0.77600
C22         C  0.38168696  0.72510022  0.34854847     0.83100
N23         N  0.36645457  0.75231542  0.34413861    -0.77600
C24         C  0.38192779  0.77947238  0.34161830     0.83200
N25         N  0.41348032  0.77928487  0.34325983    -0.79300
O26         O  0.26895513  0.87834530  0.35310556    -0.57400
C27         C  0.22296936  0.96127258  0.33285533     0.75300
O28         O  0.19506234  0.90774228  0.38884357    -0.58500
C29         C  0.29772378  0.88238445  0.35770397     0.75200
C30         C  0.27588539  0.96201996  0.43196175     0.77600
Cd31       Cd  0.25008537  0.92459165  0.38194689     1.37500
O32         O  0.24299279  0.94034978  0.32706732    -0.57400
O33         O  0.28150391  0.96789371  0.40355787    -0.56200
C34         C  0.20132311  0.88534501  0.40675738     0.77600
O35         O  0.25749836  0.93981604  0.43723483    -0.58500
O36         O  0.21674170  0.96655584  0.36134964    -0.57000
O37         O  0.30488734  0.90686154  0.37263629    -0.57000
O38         O  0.22977755  0.88169006  0.41334887    -0.56200
C39         C  0.93074225  0.76267166  0.42795508     0.80700
N40         N  0.91476477  0.73527937  0.42955098    -0.77600
C41         C  0.88314137  0.73521942  0.43162901     0.83100
N42         N  0.86763238  0.76259517  0.43166402    -0.77600
C43         C  0.88268075  0.79005189  0.42971975     0.83200
N44         N  0.91438381  0.79008773  0.42773280    -0.79300
O45         O  0.75846405  0.57575134  0.33446101    -0.57400
C46         C  0.70269574  0.63348697  0.36510853     0.75300
O47         O  0.74215194  0.57600192  0.44390533    -0.58500
C48         C  0.77698697  0.55370272  0.34055159     0.75200
C49         C  0.79963869  0.63251679  0.41231200     0.77600
Cd50       Cd  0.75049956  0.59222572  0.38929531     1.37500
O51         O  0.73130026  0.63696337  0.35918537    -0.57400
O52         O  0.80507227  0.61044119  0.39331706    -0.56200
C53         C  0.72432435  0.55349254  0.43752210     0.77600
O54         O  0.77182952  0.63481260  0.42198714    -0.58500
O55         O  0.69590200  0.61027586  0.38168611    -0.57000
O56         O  0.78228242  0.54858139  0.36913206    -0.57000
O57         O  0.71914322  0.54822420  0.40885069    -0.56200
C58         C  0.56542686  0.75704604  0.34434891     0.80700
N59         N  0.58036723  0.78496593  0.34325946    -0.77600
C60         C  0.61183794  0.78623207  0.34064453     0.83100
N61         N  0.62834534  0.75943606  0.33952306    -0.77600
C62         C  0.61425016  0.73140857  0.34116845     0.83200
N63         N  0.58264841  0.73024977  0.34365565    -0.79300
O64         O  0.76502953  0.88332975  0.41255132    -0.57400
C65         C  0.71819846  0.96378650  0.43408545     0.75300
O66         O  0.75123391  0.94683709  0.32914218    -0.58500
C67         C  0.79343572  0.88736673  0.40591477     0.75200
C68         C  0.69476512  0.88899696  0.35817874     0.77600
Cd69       Cd  0.74410271  0.92814367  0.38304036     1.37500
O70         O  0.73567170  0.94053178  0.43840205    -0.57400
O71         O  0.68898299  0.91127888  0.37684098    -0.56200
C72         C  0.77156465  0.96694736  0.33599818     0.77600
O73         O  0.72292314  0.88600727  0.34985203    -0.58500
O74         O  0.71379090  0.97183208  0.40604400    -0.57000
O75         O  0.79922196  0.91048347  0.38885244    -0.57000
O76         O  0.77761159  0.97072564  0.36471698    -0.56200
C77         C  0.99844390  0.32403743  0.31432758     0.80700
N78         N  0.97078282  0.33991969  0.31407040    -0.77600
C79         C  0.97012333  0.37137000  0.31808258     0.83100
N80         N  0.99726147  0.38672070  0.32199792    -0.77600
C81         C  0.02498724  0.37173254  0.32192386     0.83200
N82         N  0.02552646  0.34029589  0.31781186    -0.79300
O83         O  0.84963471  0.55979967  0.26277676    -0.57400
C84         C  0.79196501  0.48060462  0.21685905     0.75300
O85         O  0.84534602  0.45078744  0.27840014    -0.58500
C86         C  0.87157781  0.55317524  0.24404132     0.75200
C87         C  0.79281788  0.53600882  0.31568359     0.77600
Cd88       Cd  0.82950511  0.50584833  0.26742476     1.37500
O89         O  0.81479030  0.49839070  0.21216145    -0.57400
O90         O  0.79126735  0.54418413  0.28740810    -0.56200
C91         C  0.87028941  0.45757306  0.29251122     0.77600
O92         O  0.80980721  0.51270732  0.32156261    -0.58500
O93         O  0.78509273  0.47543527  0.24513797    -0.57000
O94         O  0.87332898  0.52497273  0.23545228    -0.57000
O95         O  0.87562486  0.48629932  0.29584439    -0.56200
C96         C  0.00115197  0.68485048  0.23241943     0.80700
N97         N  0.97365984  0.66918764  0.22948882    -0.77600
C98         C  0.97347114  0.63765842  0.22646227     0.83100
N99         N  0.00089162  0.62203381  0.22670235    -0.77600
C100        C  0.02835358  0.63699508  0.23009071     0.83200
N101        N  0.02837118  0.66845278  0.23306152    -0.79300
O102        O  0.15160930  0.55836559  0.27200781    -0.57400
C103        C  0.20599495  0.47691127  0.22797094     0.75300
O104        O  0.18218093  0.51412987  0.33443468    -0.58500
C105        C  0.12893893  0.55178595  0.25434818     0.75200
C106        C  0.12739455  0.45539182  0.30194514     0.77600
Cd107      Cd  0.16929031  0.50339594  0.27892742     1.37500
O108        O  0.18763055  0.49954435  0.22381435    -0.57400
O109        O  0.15280152  0.44848194  0.28849000    -0.56200
C110        C  0.20601975  0.53038970  0.32917346     0.77600
O111        O  0.12210883  0.48414522  0.30565948    -0.58500
O112        O  0.20856195  0.46735150  0.25575629    -0.57000
O113        O  0.12583021  0.52330227  0.24748577    -0.57000
O114        O  0.21422054  0.53275040  0.30085646    -0.56200
C115        C  0.99880618  0.82046220  0.23531446     0.80700
N116        N  0.02561753  0.83708726  0.23156352    -0.77600
C117        C  0.02459073  0.86870533  0.22979917     0.83100
N118        N  0.99669076  0.88343355  0.23182727    -0.77600
C119        C  0.97008072  0.86736611  0.23589114     0.83200
N120        N  0.97116766  0.83597121  0.23775341    -0.79300
C121        C  0.00383482  0.18823460  0.30399961     0.80700
N122        N  0.97690530  0.17148956  0.30112762    -0.77600
C123        C  0.97789129  0.13983055  0.30025496     0.83100
N124        N  0.00560919  0.12518354  0.30296971    -0.77600
C125        C  0.03242862  0.14114594  0.30563910     0.83200
N126        N  0.03162854  0.17273969  0.30563112    -0.79300
O127        O  0.13006260  0.02749352  0.29417570    -0.57400
C128        C  0.20642827  0.97725401  0.30772053     0.75300
O129        O  0.15341462  0.94853746  0.24645747    -0.58500
C130        C  0.13098727  0.05418338  0.28195945     0.75200
C131        C  0.20567223  0.02964439  0.20907325     0.77600
Cd132      Cd  0.16896026  0.00326100  0.25864087     1.37500
O133        O  0.18564761  0.99744278  0.31347227    -0.57400
O134        O  0.21290958  0.03327365  0.23752314    -0.56200
C135        C  0.12600596  0.95535951  0.23819871     0.77600
O136        O  0.18250004  0.01246807  0.20332157    -0.58500
O137        O  0.21110131  0.97032953  0.27926976    -0.57000
O138        O  0.15036837  0.05745269  0.25994145    -0.57000
O139        O  0.11937220  0.98399408  0.23808507    -0.56200
O140        O  0.85004132  0.05509998  0.29223494    -0.57400
C141        C  0.78906080  0.98321783  0.31172260     0.75300
O142        O  0.81005980  0.00931161  0.20976090    -0.58500
C143        C  0.87542546  0.05558993  0.27712483     0.75200
C144        C  0.86901613  0.95304784  0.25483865     0.77600
Cd145      Cd  0.82978102  0.00748373  0.26448704     1.37500
O146        O  0.81055313  0.00210448  0.31853375    -0.57400
O147        O  0.86361918  0.96393978  0.28190436    -0.56200
C148        C  0.79310671  0.03316023  0.21371615     0.77600
O149        O  0.85539745  0.96656166  0.23248488    -0.58500
O150        O  0.78486709  0.97737160  0.28298931    -0.57000
O151        O  0.87894636  0.03441684  0.25670873    -0.57000
O152        O  0.79228760  0.04456959  0.24109844    -0.56200
C153        C  0.50233032  0.68426641  0.55811382     0.80700
N154        N  0.47518546  0.66817175  0.56078028    -0.77600
C155        C  0.47550914  0.63687917  0.56496738     0.83100
N156        N  0.50310070  0.62161890  0.56562368    -0.77600
C157        C  0.53038869  0.63696928  0.56219428     0.83200
N158        N  0.52989732  0.66836453  0.55840179    -0.79300
O159        O  0.69076611  0.51336738  0.45616003    -0.57400
C160        C  0.63211194  0.46095083  0.99229357     0.75300
O161        O  0.69483285  0.50698552  0.06845451    -0.58500
C162        C  0.70923431  0.53545056  0.46226729     0.75200
C163        C  0.63086245  0.55469989  0.03955890     0.77600
Cd164      Cd  0.67415016  0.50924440  0.01445718     1.37500
O165        O  0.62763738  0.48717889  0.48242031    -0.57400
O166        O  0.62913489  0.52468408  0.54106231    -0.56200
C167        C  0.71267586  0.48399207  0.06357360     0.77600
O168        O  0.65503098  0.56257463  0.02470561    -0.58500
O169        O  0.65585507  0.45454582  0.00851487    -0.57000
O170        O  0.71253549  0.54570645  0.99186175    -0.57000
O171        O  0.71458202  0.47411617  0.03565457    -0.56200
C172        C  0.50167618  0.32586142  0.46716038     0.80700
N173        N  0.52876744  0.34245105  0.46746500    -0.77600
C174        C  0.52815662  0.37416282  0.46656102     0.83100
N175        N  0.50031649  0.38910276  0.46551212    -0.77600
C176        C  0.47321829  0.37317510  0.46587767     0.83200
N177        N  0.47400392  0.34159927  0.46687408    -0.79300
O178        O  0.35433876  0.45092751  0.51968891    -0.57400
C179        C  0.29046078  0.53157334  0.47738414     0.75300
O180        O  0.31348547  0.49684453  0.07810137    -0.58500
C181        C  0.37176198  0.45612632  0.49645272     0.75200
C182        C  0.37337602  0.55295715  0.54366517     0.77600
Cd183      Cd  0.33077221  0.50399788  0.52359076     1.37500
O184        O  0.30896844  0.50952214  0.47070159    -0.57400
O185        O  0.35293242  0.55722288  0.52297455    -0.56200
C186        C  0.29112177  0.47846834  0.07292434     0.77600
O187        O  0.36968735  0.52873987  0.05567249    -0.58500
O188        O  0.28859240  0.53947841  0.50594806    -0.57000
O189        O  0.37246364  0.48524463  0.98834441    -0.57000
O190        O  0.28499124  0.47299767  0.04443731    -0.56200
C191        C  0.49939343  0.19031353  0.97259991     0.80700
N192        N  0.47215055  0.17502628  0.97876954    -0.77600
C193        C  0.47196737  0.14355148  0.98221521     0.83100
N194        N  0.49885232  0.12742883  0.97888999    -0.77600
C195        C  0.52596769  0.14189560  0.97263989     0.83200
N196        N  0.52635104  0.17341715  0.96989542    -0.79300
C197        C  0.49653769  0.82090532  0.04546394     0.80700
N198        N  0.52377709  0.83710456  0.04745208    -0.77600
C199        C  0.52376176  0.86858582  0.04518101     0.83100
N200        N  0.49670433  0.88366638  0.03994152    -0.77600
C201        C  0.46955495  0.86817518  0.03724951     0.83200
N202        N  0.46934045  0.83670292  0.04029900    -0.79300
O203        O  0.64564239  0.05794542  0.00883871    -0.57400
C204        C  0.70244464  0.97930074  0.46035169     0.75300
O205        O  0.68194469  0.01045785  0.06664446    -0.58500
C206        C  0.62435564  0.05293686  0.98909955     0.75200
C207        C  0.62553056  0.95334178  0.03077915     0.77600
Cd208      Cd  0.66552751  0.00391701  0.01135520     1.37500
O209        O  0.68246837  0.00053290  0.45623167    -0.57400
O210        O  0.64688977  0.94927539  0.01076420    -0.56200
C211        C  0.70411025  0.02891403  0.06108576     0.77600
O212        O  0.62381542  0.98027477  0.04286145    -0.58500
O213        O  0.70907049  0.97310278  0.98969694    -0.57000
O214        O  0.62258234  0.02534383  0.97886691    -0.57000
O215        O  0.70955601  0.03459028  0.03260096    -0.56200
O216        O  0.31091141  0.00996635  0.06372152    -0.57400
C217        C  0.36873319  0.95408046  0.01677965     0.75300
O218        O  0.31028151  0.00062330  0.45233706    -0.58500
C219        C  0.29009972  0.03029535  0.05922703     0.75200
C220        C  0.37109017  0.05718165  0.00070301     0.77600
Cd221      Cd  0.32725799  0.00601397  0.00849005     1.37500
O222        O  0.34834079  0.96048906  0.03736113    -0.57400
O223        O  0.37454561  0.03564292  0.02030065    -0.56200
C224        C  0.29127679  0.97889727  0.45755201     0.77600
O225        O  0.34790958  0.05299504  0.47867493    -0.58500
O226        O  0.36885500  0.97100541  0.99273222    -0.57000
O227        O  0.28493574  0.03776457  0.03117237    -0.57000
O228        O  0.28779175  0.97018289  0.98681036    -0.56200
O229        O  0.22791121  0.38016112  0.12156931    -0.57400
C230        C  0.27459161  0.46279550  0.09873704     0.75300
O231        O  0.23962192  0.43807300  0.20580437    -0.58500
C232        C  0.19919632  0.38470349  0.12644670     0.75200
C233        C  0.29901023  0.38494856  0.17072339     0.77600
Cd234      Cd  0.24840083  0.42581886  0.14956490     1.37500
O235        O  0.25391114  0.44248368  0.09375536    -0.57400
O236        O  0.27090934  0.38112815  0.17871082    -0.56200
C237        C  0.22222281  0.46143053  0.20167816     0.77600
O238        O  0.30418629  0.40857166  0.15413401    -0.58500
O239        O  0.28161493  0.46765283  0.12710220    -0.57000
O240        O  0.19245591  0.40936050  0.14139611    -0.57000
O241        O  0.21839261  0.46978563  0.17364455    -0.56200
C242        C  0.43166429  0.25459643  0.17894699     0.80700
N243        N  0.41557659  0.22718368  0.17813829    -0.77600
C244        C  0.38395663  0.22703938  0.18144566     0.83100
N245        N  0.36868481  0.25446233  0.18539681    -0.77600
C246        C  0.38399476  0.28191067  0.18587000     0.83200
N247        N  0.41552569  0.28189411  0.18244212    -0.79300
O248        O  0.25458728  0.06746926  0.08078541    -0.57400
C249        C  0.20125877  0.12646881  0.11701074     0.75300
O250        O  0.24516836  0.06348761  0.18989640    -0.58500
C251        C  0.27441368  0.04619415  0.08533667     0.75200
C252        C  0.29848249  0.12550746  0.15873639     0.77600
Cd253      Cd  0.24993170  0.08368190  0.13613124     1.37500
O254        O  0.19591479  0.10388428  0.13492225    -0.57400
O255        O  0.30538639  0.10035146  0.14473065    -0.56200
C256        C  0.22224092  0.04597599  0.18414271     0.77600
O257        O  0.26975628  0.13019991  0.16331567    -0.58500
O258        O  0.22879855  0.12822187  0.10648754    -0.57000
O259        O  0.28154699  0.04080444  0.11343990    -0.57000
O260        O  0.21331222  0.04444919  0.15602688    -0.56200
C261        C  0.06668587  0.25542866  0.10296376     0.80700
N262        N  0.08240537  0.28305988  0.10365086    -0.77600
C263        C  0.11407588  0.28359935  0.10211400     0.83100
N264        N  0.12983816  0.25638211  0.10010227    -0.77600
C265        C  0.11512874  0.22871421  0.09971657     0.83200
N266        N  0.08339729  0.22820610  0.10143846    -0.79300
C267        C  0.92980850  0.25227519  0.10513933     0.80700
N268        N  0.91318953  0.27949532  0.10563301    -0.77600
C269        C  0.88149026  0.27928721  0.10375243     0.83100
N270        N  0.86649159  0.25166823  0.10163932    -0.77600
C271        C  0.88246152  0.22442093  0.10155189     0.83200
N272        N  0.91405221  0.22482484  0.10352928    -0.79300
O273        O  0.69423074  0.09905219  0.14757880    -0.57400
C274        C  0.77633639  0.04779228  0.18764572     0.75300
O275        O  0.74247277  0.06411544  0.08085302    -0.58500
C276        C  0.70148801  0.12638743  0.15581021     0.75200
C277        C  0.80016776  0.12013480  0.11410297     0.77600
Cd278      Cd  0.74919295  0.08179762  0.13590923     1.37500
O279        O  0.75869666  0.07107447  0.19199206    -0.57400
O280        O  0.80449111  0.09782603  0.13265236    -0.56200
C281        C  0.72132976  0.04452871  0.08643908     0.77600
O282        O  0.77282272  0.12293262  0.10347790    -0.58500
O283        O  0.77977643  0.03864948  0.15960401    -0.57000
O284        O  0.73028818  0.13221132  0.15609812    -0.57000
O285        O  0.71459768  0.04039233  0.11492331    -0.56200
C286        C  0.56804569  0.25734875  0.17275191     0.80700
N287        N  0.58432884  0.22988400  0.17159697    -0.77600
C288        C  0.61607452  0.22990491  0.17154002     0.83100
N289        N  0.63117356  0.25739403  0.17228665    -0.77600
C290        C  0.61576484  0.28481831  0.17297715     0.83200
N291        N  0.58404471  0.28482170  0.17319194    -0.79300
O292        O  0.72929261  0.38449760  0.16725496    -0.57400
C293        C  0.77583819  0.46528274  0.19063182     0.75300
O294        O  0.80381021  0.40567560  0.14117325    -0.58500
C295        C  0.70170192  0.38648230  0.15734263     0.75200
C296        C  0.72828658  0.46787340  0.08932877     0.77600
Cd297      Cd  0.75106262  0.42889130  0.13907249     1.37500
O298        O  0.75395564  0.44613980  0.19483948    -0.57400
O299        O  0.72121594  0.47331082  0.11764019    -0.56200
C300        C  0.80007323  0.38609980  0.11930211     0.77600
O301        O  0.74773546  0.44623691  0.08423289    -0.58500
O302        O  0.78449126  0.46930867  0.16263681    -0.57000
O303        O  0.69611762  0.40932699  0.13980331    -0.57000
O304        O  0.77443543  0.38784602  0.10491402    -0.56200
C305        C  0.63462794  0.31368725  0.17307864    -0.05000
C306        C  0.66400820  0.31286863  0.18744823    -0.32400
C307        C  0.68538559  0.33691723  0.18364705     0.36800
C308        C  0.67782470  0.36271346  0.16495649    -0.05400
C309        C  0.64780442  0.36436882  0.15181643    -0.32300
C310        C  0.62622731  0.34019312  0.15590624     0.36700
H311        H  0.67098187  0.29281272  0.20094032     0.17100
O312        O  0.71425752  0.33397505  0.19696623    -0.59800
H313        H  0.64139541  0.38389939  0.13734565     0.17100
O314        O  0.59809485  0.34163554  0.14093030    -0.59900
H315        H  0.58362773  0.35128023  0.15633204     0.44100
H316        H  0.71168607  0.34161240  0.21878699     0.44100
C317        C  0.67791974  0.15074550  0.16355552    -0.05000
C318        C  0.64701515  0.14819198  0.15284026    -0.32400
C319        C  0.62579019  0.17309989  0.15635487     0.36800
C320        C  0.63533164  0.20100263  0.17096868    -0.05400
C321        C  0.66567501  0.20260363  0.18318921    -0.32300
C322        C  0.68670823  0.17800499  0.17969687     0.36700
H323        H  0.63966971  0.12739750  0.14047263     0.17100
O324        O  0.59638199  0.17031487  0.14428849    -0.59800
H325        H  0.67357126  0.22348126  0.19507305     0.17100
O326        O  0.71617381  0.18134328  0.19151458    -0.59900
H327        H  0.71534024  0.17203484  0.21265686     0.44100
H328        H  0.59801786  0.17767096  0.12243052     0.44100
C329        C  0.82488983  0.14312075  0.10689620    -0.05000
C330        C  0.81943131  0.16555707  0.08387294    -0.32400
C331        C  0.83909490  0.19125913  0.08075690     0.36800
C332        C  0.86499796  0.19479959  0.10058157    -0.05400
C333        C  0.87204290  0.17113406  0.12180416    -0.32300
C334        C  0.85215471  0.14553384  0.12522677     0.36700
H335        H  0.79907432  0.16394778  0.06905116     0.17100
O336        O  0.83281874  0.21289437  0.05823394    -0.59800
H337        H  0.89196794  0.17340707  0.13713024     0.17100
O338        O  0.85886801  0.12387883  0.14759648    -0.59900
H339        H  0.85077489  0.13285923  0.16749435     0.44100
H340        H  0.81453073  0.22475263  0.06614306     0.44100
C341        C  0.86286499  0.30856495  0.10461310    -0.05000
C342        C  0.87166697  0.33345822  0.12411272    -0.32400
C343        C  0.85211048  0.35949963  0.12821808     0.36800
C344        C  0.82339807  0.36128539  0.11222499    -0.05400
C345        C  0.81555524  0.33716178  0.09137275    -0.32300
C346        C  0.83483476  0.31104797  0.08761433     0.36700
H347        H  0.89309380  0.33212799  0.13734333     0.17100
O348        O  0.86110251  0.38276116  0.14837281    -0.59800
H349        H  0.79376717  0.33790728  0.07868874     0.17100
O350        O  0.82563052  0.28772684  0.06765079    -0.59900
H351        H  0.83511951  0.29284560  0.04717865     0.44100
H352        H  0.85424625  0.37592038  0.16937795     0.44100
C353        C  0.03160092  0.25491259  0.10394464    -0.05000
C354        C  0.01568992  0.22635464  0.10476806    -0.32400
C355        C  0.98295033  0.22501024  0.10515202     0.36800
C356        C  0.96485622  0.25264076  0.10527154    -0.05400
C357        C  0.98075916  0.28116094  0.10447873    -0.32300
C358        C  0.01346478  0.28250103  0.10369179     0.36700
H359        H  0.02862954  0.20468907  0.10487208     0.17100
O360        O  0.96908390  0.19635144  0.10552252    -0.59800
H361        H  0.96782941  0.30282584  0.10409042     0.17100
O362        O  0.02725298  0.31111057  0.10175600    -0.59900
H363        H  0.02775895  0.31921988  0.12350691     0.44100
H364        H  0.96730279  0.19005793  0.08326637     0.44100
C365        C  0.17712819  0.15024722  0.10964777    -0.05000
C366        C  0.18471736  0.17471135  0.08958593    -0.32400
C367        C  0.16406733  0.19951605  0.08495951     0.36800
C368        C  0.13462489  0.20001570  0.09989099    -0.05400
C369        C  0.12631263  0.17479125  0.11868783    -0.32300
C370        C  0.14736845  0.15026448  0.12394060     0.36700
H371        H  0.20728944  0.17531180  0.07821953     0.17100
O372        O  0.17306338  0.22338897  0.06591052    -0.59800
H373        H  0.10418229  0.17497951  0.13091201     0.17100
O374        O  0.13930233  0.12756723  0.14471714    -0.59900
H375        H  0.12727210  0.11219599  0.13231034     0.44100
H376        H  0.18865212  0.23532369  0.07813586     0.44100
C377        C  0.46657765  0.25506268  0.17659667    -0.05000
C378        C  0.48305891  0.28123009  0.18752623    -0.32400
C379        C  0.51576071  0.28237299  0.18646037     0.36800
C380        C  0.53312116  0.25715382  0.17390602    -0.05400
C381        C  0.51667501  0.23110308  0.16272669    -0.32300
C382        C  0.48393553  0.22987901  0.16396928     0.36700
H383        H  0.47058700  0.30088381  0.19756523     0.17100
O384        O  0.53040049  0.30817437  0.19832491    -0.59800
H385        H  0.52922835  0.21152058  0.15264407     0.17100
O386        O  0.46920707  0.20435976  0.15163891    -0.59900
H387        H  0.47138395  0.18793602  0.16765497     0.44100
H388        H  0.53354193  0.30380009  0.22081345     0.44100
C389        C  0.32229687  0.14887245  0.16815853    -0.05000
C390        C  0.35233213  0.14812323  0.15482049    -0.32400
C391        C  0.37362979  0.17242729  0.16021944     0.36800
C392        C  0.36508679  0.19802196  0.17934339    -0.05400
C393        C  0.33580026  0.19760762  0.19415882    -0.32300
C394        C  0.31450875  0.17368299  0.18854696     0.36700
H395        H  0.35884665  0.12941500  0.13892874     0.17100
O396        O  0.40158583  0.17209222  0.14465748    -0.59800
H397        H  0.32876454  0.21665027  0.20941570     0.17100
O398        O  0.28590242  0.17511764  0.20287167    -0.59900
H399        H  0.27318529  0.18919095  0.18972075     0.44100
H400        H  0.41503007  0.15767669  0.15658689     0.44100
C401        C  0.17532348  0.36167870  0.11615270    -0.05000
C402        C  0.14423719  0.36367583  0.12682191    -0.32400
C403        C  0.12294329  0.33941492  0.12088940     0.36800
C404        C  0.13261143  0.31276894  0.10389905    -0.05400
C405        C  0.16286830  0.31217244  0.09130229    -0.32300
C406        C  0.18399862  0.33600361  0.09727043     0.36700
H407        H  0.13679539  0.38334678  0.14102592     0.17100
O408        O  0.09340513  0.34139297  0.13304084    -0.59800
H409        H  0.17079358  0.29237792  0.07754665     0.17100
O410        O  0.21366197  0.33302545  0.08563290    -0.59900
H411        H  0.21323732  0.34355553  0.06511111     0.44100
H412        H  0.09515487  0.33376461  0.15478129     0.44100
C413        C  0.32379010  0.36200761  0.17905812    -0.05000
C414        C  0.31679228  0.33800113  0.19998276    -0.32400
C415        C  0.33726285  0.31286571  0.20407046     0.36800
C416        C  0.36552730  0.31127690  0.18718772    -0.05400
C417        C  0.37382650  0.33653803  0.16838057    -0.32300
C418        C  0.35333826  0.36179154  0.16434343     0.36700
H419        H  0.29475239  0.33799852  0.21237645     0.17100
O420        O  0.32933801  0.28979855  0.22454427    -0.59800
H421        H  0.39546000  0.33590462  0.15528667     0.17100
O422        O  0.36166801  0.38501029  0.14427674    -0.59900
H423        H  0.37319681  0.40021029  0.15733976     0.44100
H424        H  0.31305352  0.27746697  0.21375393     0.44100
C425        C  0.55262800  0.88703814  0.04654178    -0.05000
C426        C  0.57867494  0.87820591  0.02864962    -0.32400
C427        C  0.60349525  0.89890776  0.02434860     0.36800
C428        C  0.60263839  0.92877298  0.03853160    -0.05400
C429        C  0.57758022  0.93641540  0.05833757    -0.32300
C430        C  0.55256568  0.91612430  0.06197618     0.36700
H431        H  0.57888249  0.85607204  0.01632284     0.17100
O432        O  0.62740757  0.89036379  0.00471384    -0.59800
H433        H  0.57643786  0.95895896  0.06981682     0.17100
O434        O  0.52772839  0.92522175  0.08021645    -0.59900
H435        H  0.51564827  0.93991888  0.06720729     0.44100
H436        H  0.64191928  0.88198021  0.51007150     0.44100
C437        C  0.44146694  0.88632253  0.02928576    -0.05000
C438        C  0.41378329  0.88357946  0.04658743    -0.32400
C439        C  0.38934179  0.90508353  0.04259114     0.36800
C440        C  0.39234178  0.92923585  0.02060469    -0.05400
C441        C  0.41945416  0.93074177  0.00237822    -0.32300
C442        C  0.44382433  0.90982034  0.00667457     0.36700
H443        H  0.41176781  0.86584467  0.06429461     0.17100
O444        O  0.36323654  0.90286255  0.06096749    -0.59800
H445        H  0.41941324  0.94193695  0.47757564     0.17100
O446        O  0.46606783  0.90366092  0.47978665    -0.59900
H447        H  0.45902850  0.89003280  0.46239029     0.44100
H448        H  0.34770058  0.89197598  0.04779052     0.44100
C449        C  0.60200476  0.07771741  0.97992353    -0.05000
C450        C  0.60371782  0.10713116  0.99454417    -0.32400
C451        C  0.58014233  0.12938860  0.99058339     0.36800
C452        C  0.55454863  0.12268829  0.97131182    -0.05400
C453        C  0.55381262  0.09417767  0.95501432    -0.32300
C454        C  0.57722084  0.07179987  0.95908958     0.36700
H455        H  0.62250661  0.11234935  0.01057177     0.17100
O456        O  0.58114354  0.15656293  0.00758489    -0.59800
H457        H  0.53415787  0.08862899  0.94015602     0.17100
O458        O  0.57499539  0.04393998  0.94336692    -0.59900
H459        H  0.56103023  0.03098013  0.95635640     0.44100
H460        H  0.57225596  0.15616552  0.52273582     0.44100
C461        C  0.39472735  0.08233158  0.99777487    -0.05000
C462        C  0.42141661  0.08107035  0.01666714    -0.32400
C463        C  0.44545726  0.10255539  0.01331616     0.36800
C464        C  0.44357461  0.12592921  0.99050093    -0.05400
C465        C  0.41620213  0.12865041  0.97287722    -0.32300
C466        C  0.39190406  0.10697697  0.97626437     0.36700
H467        H  0.42414278  0.06283244  0.03376049     0.17100
O468        O  0.47132598  0.09983610  0.03187128    -0.59800
H469        H  0.41353666  0.14473732  0.44835971     0.17100
O470        O  0.36435184  0.10885488  0.45310021    -0.59900
H471        H  0.37036657  0.10051413  0.43223519     0.44100
H472        H  0.46795848  0.11487969  0.04930479     0.44100
C473        C  0.50018393  0.22523242  0.97014913    -0.05000
C474        C  0.52833346  0.24051526  0.96310207    -0.32400
C475        C  0.52930735  0.27290374  0.46563906     0.36800
C476        C  0.50359384  0.29177228  0.96848174    -0.05400
C477        C  0.47534836  0.27645047  0.97464164    -0.32300
C478        C  0.47341945  0.24387271  0.97536065     0.36700
H479        H  0.54927127  0.22712276  0.95840752     0.17100
O480        O  0.55788310  0.28682169  0.46352919    -0.59800
H481        H  0.45435394  0.28976398  0.97929015     0.17100
O482        O  0.44496679  0.23070077  0.98099818    -0.59900
H483        H  0.44316020  0.22979450  0.00412875     0.44100
H484        H  0.56289704  0.28696142  0.44085257     0.44100
C485        C  0.44364902  0.39081975  0.46908376    -0.05000
C486        C  0.44672109  0.42331538  0.96012022    -0.32400
C487        C  0.42232319  0.44400582  0.96713792     0.36800
C488        C  0.39448405  0.43254965  0.48440775    -0.05400
C489        C  0.39735863  0.40381389  0.49963535    -0.32300
C490        C  0.42165011  0.38309866  0.49219494     0.36700
H491        H  0.46561564  0.43122395  0.94537597     0.17100
O492        O  0.42321464  0.47332776  0.95484221    -0.59800
H493        H  0.38162460  0.39795838  0.51850927     0.17100
O494        O  0.42487143  0.35641478  0.50922048    -0.59900
H495        H  0.43992693  0.36164049  0.52600847     0.44100
H496        H  0.43664050  0.48554115  0.96926436     0.44100
C497        C  0.55693991  0.39323435  0.46861270    -0.05000
C498        C  0.55711345  0.42268704  0.45464019    -0.32400
C499        C  0.58159376  0.44352537  0.45955094     0.36800
C500        C  0.60905725  0.43686618  0.98282524    -0.05400
C501        C  0.60985971  0.40712091  0.99636687    -0.32300
C502        C  0.58612718  0.38534104  0.99056364     0.36700
H503        H  0.53762872  0.43003835  0.44041865     0.17100
O504        O  0.57978278  0.47241219  0.44635192    -0.59800
H505        H  0.62826704  0.40111635  0.01251647     0.17100
O506        O  0.58665939  0.35748010  0.00585523    -0.59900
H507        H  0.59996284  0.34364885  0.99271767     0.44100
H508        H  0.59026108  0.47020521  0.42576146     0.44100
C509        C  0.49970100  0.72028424  0.05400330    -0.05000
C510        C  0.47114967  0.73642723  0.05595374    -0.32400
C511        C  0.46960041  0.76887387  0.05319203     0.36800
C512        C  0.49698375  0.78627709  0.04834048    -0.05400
C513        C  0.52553737  0.77016887  0.04642952    -0.32300
C514        C  0.52762563  0.73756760  0.55997618     0.36700
H515        H  0.44966856  0.72392306  0.05981269     0.17100
O516        O  0.44106435  0.78315917  0.05536717    -0.59800
H517        H  0.54614059  0.78362943  0.56172130     0.17100
O518        O  0.55478862  0.72492189  0.57098568    -0.59900
H519        H  0.56888254  0.72361126  0.55255455     0.44100
H520        H  0.43786531  0.78730233  0.07804821     0.44100
C521        C  0.55958279  0.61845254  0.55963152    -0.05000
C522        C  0.56026880  0.58872825  0.57294267    -0.32400
C523        C  0.58447521  0.56786904  0.56645527     0.36800
C524        C  0.60696925  0.57776474  0.04941143    -0.05400
C525        C  0.60706107  0.60750274  0.03602887    -0.32300
C526        C  0.58218111  0.62818996  0.04084857     0.36700
H527        H  0.54121755  0.58101554  0.58757531     0.17100
O528        O  0.58333863  0.53873426  0.57919446    -0.59800
H529        H  0.62562202  0.61415034  0.02026680     0.17100
O530        O  0.58192378  0.65580044  0.02508290    -0.59900
H531        H  0.57118372  0.65125989  0.00505432     0.44100
H532        H  0.56873935  0.52678988  0.56575749     0.44100
C533        C  0.39679872  0.57704817  0.55192769    -0.05000
C534        C  0.41459482  0.57377665  0.07402439    -0.32400
C535        C  0.43991147  0.59362902  0.07883672     0.36800
C536        C  0.44648927  0.61856773  0.56373925    -0.05400
C537        C  0.42464416  0.62496314  0.54037141    -0.32300
C538        C  0.40030040  0.60428969  0.53401945     0.36700
H539        H  0.41248830  0.55338426  0.08853975     0.17100
O540        O  0.46097396  0.58688641  0.10190156    -0.59800
H541        H  0.42764540  0.64500630  0.52550964     0.17100
O542        O  0.38099415  0.61034330  0.50930471    -0.59900
H543        H  0.39194862  0.60175069  0.49064940     0.44100
H544        H  0.47459443  0.57037133  0.09292763     0.44100
C545        C  0.10956941  0.07962155  0.29196407    -0.05000
C546        C  0.08783116  0.07412045  0.31586046    -0.32400
C547        C  0.06408170  0.09553819  0.32239974     0.36800
C548        C  0.06179993  0.12323546  0.30518167    -0.05400
C549        C  0.08484751  0.13000400  0.28303449    -0.32300
C550        C  0.10854975  0.10840449  0.27623193     0.36700
H551        H  0.08822132  0.05242090  0.32851742     0.17100
O552        O  0.04195365  0.08821530  0.34432006    -0.59800
H553        H  0.08313907  0.15096794  0.26927922     0.17100
O554        O  0.12906024  0.11476447  0.25252616    -0.59900
H555        H  0.14753746  0.12386205  0.26301942     0.44100
H556        H  0.04678871  0.10135980  0.36281129     0.44100
C557        C  0.95026140  0.12054459  0.29302659    -0.05000
C558        C  0.92112200  0.12618495  0.30705910    -0.32400
C559        C  0.89613121  0.10559707  0.30195969     0.36800
C560        C  0.90026887  0.07891943  0.28275007    -0.05400
C561        C  0.92916242  0.07413852  0.26811606    -0.32300
C562        C  0.95380408  0.09453934  0.27295412     0.36700
H563        H  0.91793423  0.14609249  0.32247187     0.17100
O564        O  0.86798388  0.11170233  0.31597637    -0.59800
H565        H  0.93294953  0.05424529  0.25281128     0.17100
O566        O  0.98115912  0.08937190  0.25698518    -0.59900
H567        H  0.99156472  0.07199981  0.26795982     0.44100
H568        H  0.85605344  0.12380155  0.30039810     0.44100
C569        C  0.05302824  0.88803537  0.22692004    -0.05000
C570        C  0.04983703  0.91809848  0.21469379    -0.32400
C571        C  0.07391682  0.93969256  0.21677331     0.36800
C572        C  0.10236153  0.93137688  0.23076852    -0.05400
C573        C  0.10664080  0.90051274  0.24062202    -0.32300
C574        C  0.08215205  0.87894808  0.23905146     0.36700
H575        H  0.02797943  0.92549276  0.20451747     0.17100
O576        O  0.06915471  0.96906171  0.20540608    -0.59800
H577        H  0.12839174  0.89354097  0.25129358     0.17100
O578        O  0.08648604  0.84976551  0.25097632    -0.59900
H579        H  0.08336039  0.85213438  0.27386884     0.44100
H580        H  0.05546346  0.97964121  0.22097051     0.44100
C581        C  0.94062477  0.88460219  0.23906114    -0.05000
C582        C  0.92509150  0.88553706  0.26793300    -0.32400
C583        C  0.90068933  0.90679941  0.27324835     0.36800
C584        C  0.89140575  0.92721213  0.24925099    -0.05400
C585        C  0.90582811  0.92464584  0.21979986    -0.32300
C586        C  0.93043626  0.90380696  0.21473780     0.36700
H587        H  0.93300482  0.87099275  0.28691251     0.17100
O588        O  0.88704978  0.90832551  0.30228448    -0.59800
H589        H  0.89916366  0.94002214  0.20102480     0.17100
O590        O  0.94546329  0.90343377  0.18637356    -0.59900
H591        H  0.93231582  0.89042095  0.17250019     0.44100
H592        H  0.87298033  0.89011771  0.30319141     0.44100
C593        C  0.00132933  0.71951555  0.23458982    -0.05000
C594        C  0.97323502  0.73558243  0.23981108    -0.32400
C595        C  0.97213177  0.76810288  0.24085276     0.36800
C596        C  0.99949780  0.78572165  0.23613427    -0.05400
C597        C  0.02775404  0.76964509  0.23154883    -0.32300
C598        C  0.02888330  0.73703829  0.23082165     0.36700
H599        H  0.95175309  0.72292470  0.24317091     0.17100
O600        O  0.94388158  0.78221369  0.24609320    -0.59800
H601        H  0.04920997  0.78232175  0.22811206     0.17100
O602        O  0.05713916  0.72273143  0.22616241    -0.59900
H603        H  0.05976762  0.72141086  0.20311604     0.44100
H604        H  0.94200171  0.78402132  0.26920145     0.44100
C605        C  0.05732581  0.61821285  0.23193063    -0.05000
C606        C  0.05765446  0.58860138  0.21782505    -0.32400
C607        C  0.08186459  0.56760745  0.22319972     0.36800
C608        C  0.10635914  0.57567842  0.24356583    -0.05400
C609        C  0.10743467  0.60623103  0.25568496    -0.32300
C610        C  0.08319975  0.62748867  0.24994327     0.36700
H611        H  0.03844535  0.58118209  0.20320868     0.17100
O612        O  0.08043913  0.53868894  0.20951096    -0.59800
H613        H  0.12632865  0.61325045  0.27088314     0.17100
O614        O  0.08437986  0.65657009  0.26333748    -0.59900
H615        H  0.07523668  0.65422797  0.28449233     0.44100
H616        H  0.08984754  0.54119239  0.18845099     0.44100
C617        C  0.89477901  0.57676217  0.23408920    -0.05000
C618        C  0.89226645  0.60773793  0.24488483    -0.32400
C619        C  0.91664140  0.62898470  0.24043032     0.36800
C620        C  0.94421467  0.61930208  0.22514739    -0.05400
C621        C  0.94534219  0.58929775  0.21182200    -0.32300
C622        C  0.92108824  0.56817464  0.21612722     0.36700
H623        H  0.87197180  0.61518029  0.25811951     0.17100
O624        O  0.91383454  0.65849516  0.25257611    -0.59800
H625        H  0.96588841  0.58153691  0.19915226     0.17100
O626        O  0.92399574  0.53883155  0.20356943    -0.59900
H627        H  0.93697677  0.52712463  0.21867841     0.44100
H628        H  0.92175727  0.65715369  0.27428738     0.44100
C629        C  0.99935469  0.28931705  0.31057185    -0.05000
C630        C  0.02804856  0.27400082  0.30579925    -0.32400
C631        C  0.02998582  0.24144688  0.30339747     0.36800
C632        C  0.00278654  0.22307918  0.30535239    -0.05400
C633        C  0.97405441  0.23843920  0.30944738    -0.32300
C634        C  0.97217884  0.27093948  0.31231400     0.36700
H635        H  0.04935857  0.28725830  0.30407353     0.17100
O636        O  0.05867511  0.22805196  0.29865249    -0.59800
H637        H  0.95274204  0.22519170  0.31115661     0.17100
O638        O  0.94351342  0.28426605  0.31726087    -0.59900
H639        H  0.94122087  0.28571189  0.34034821     0.44100
H640        H  0.06790004  0.22620341  0.31980977     0.44100
C641        C  0.05394193  0.39060696  0.32260864    -0.05000
C642        C  0.08072692  0.38023357  0.30662947    -0.32400
C643        C  0.10569697  0.40048661  0.30102714     0.36800
C644        C  0.10430321  0.43164770  0.31176350    -0.05400
C645        C  0.07871628  0.44107231  0.33006426    -0.32300
C646        C  0.05367869  0.42107488  0.33533550     0.36700
H647        H  0.08150986  0.35702125  0.29658616     0.17100
O648        O  0.13011091  0.39021401  0.28290949    -0.59800
H649        H  0.07735029  0.46461204  0.33924057     0.17100
O650        O  0.02870621  0.43187487  0.35243708    -0.59900
H651        H  0.01723518  0.44597535  0.33824983     0.44100
H652        H  0.14457956  0.37997619  0.29764689     0.44100
C653        C  0.94101445  0.39013212  0.31596805    -0.05000
C654        C  0.94016602  0.41943468  0.33085358    -0.32400
C655        C  0.91664266  0.44102624  0.32448759     0.36800
C656        C  0.89273622  0.43347492  0.30325846    -0.05400
C657        C  0.89208690  0.40325176  0.29027590    -0.32300
C658        C  0.91608759  0.38173693  0.29626912     0.36700
H659        H  0.95866357  0.42627634  0.34662804     0.17100
O660        O  0.91753476  0.46963036  0.33893361    -0.59800
H661        H  0.87387198  0.39681710  0.27401608     0.17100
O662        O  0.91579172  0.35338493  0.28132574    -0.59900
H663        H  0.92594433  0.35690813  0.26079875     0.44100
H664        H  0.93284576  0.48186845  0.32677124     0.44100
C665        C  0.62901398  0.81601659  0.34026685    -0.05000
C666        C  0.65685428  0.81747863  0.32305201    -0.32400
C667        C  0.67730776  0.84239954  0.32671943     0.36800
C668        C  0.67046662  0.86639500  0.34841675    -0.05400
C669        C  0.64133784  0.86629085  0.36367273    -0.32300
C670        C  0.62062016  0.84137046  0.35966597     0.36700
H671        H  0.66347850  0.79846373  0.30755907     0.17100
O672        O  0.70479433  0.84195767  0.31031795    -0.59800
H673        H  0.63537120  0.88457295  0.38026549     0.17100
O674        O  0.59384417  0.84062520  0.37719317    -0.59900
H675        H  0.57840073  0.85283490  0.36519491     0.44100
H676        H  0.70090774  0.85498244  0.29167847     0.44100
C677        C  0.67872705  0.65595657  0.35434155    -0.05000
C678        C  0.64747230  0.65256620  0.36370322    -0.32400
C679        C  0.62532308  0.67590740  0.35780493     0.36800
C680        C  0.63431033  0.70320774  0.34225145    -0.05400
C681        C  0.66493170  0.70529380  0.33072937    -0.32300
C682        C  0.68696805  0.68212512  0.33656694     0.36700
H683        H  0.64040479  0.63239919  0.37689465     0.17100
O684        O  0.59549071  0.67236758  0.36868133    -0.59800
H685        H  0.67235785  0.72571017  0.31810740     0.17100
O686        O  0.71693026  0.68631626  0.32627159    -0.59900
H687        H  0.71665404  0.68051505  0.30376735     0.44100
H688        H  0.59612677  0.67900918  0.39095064     0.44100
C689        C  0.86334847  0.81880918  0.42853761    -0.05000
C690        C  0.83413424  0.81866645  0.44351858    -0.32400
C691        C  0.81178267  0.84160245  0.43765230     0.36800
C692        C  0.81830104  0.86562288  0.41643865    -0.05400
C693        C  0.84851583  0.86741141  0.40362468    -0.32300
C694        C  0.87095163  0.84423718  0.40948991     0.36700
H695        H  0.82800119  0.79983527  0.45899374     0.17100
O696        O  0.78347587  0.83994158  0.45249314    -0.59800
H697        H  0.85435793  0.88599135  0.38775037     0.17100
O698        O  0.89951470  0.84588216  0.39519714    -0.59900
H699        H  0.89616153  0.83824818  0.37351643     0.44100
H700        H  0.77122415  0.82466667  0.44014031     0.44100
C701        C  0.86478124  0.70605735  0.43167824    -0.05000
C702        C  0.87408254  0.68057512  0.41308502    -0.32400
C703        C  0.85377672  0.65558196  0.40766525     0.36800
C704        C  0.82380206  0.65550826  0.42147693    -0.05400
C705        C  0.81567323  0.67980720  0.44209593    -0.32300
C706        C  0.83555139  0.70506963  0.44685948     0.36700
H707        H  0.89627989  0.68097509  0.40099296     0.17100
O708        O  0.86269368  0.63259676  0.38703133    -0.63800
H709        H  0.79305025  0.68017129  0.45338032     0.17100
O710        O  0.82584414  0.72908075  0.46595227    -0.59900
H711        H  0.81024232  0.74073527  0.45357222     0.44100
H712        H  0.87205615  0.61615848  0.40012542     0.44100
C713        C  0.46436075  0.75263946  0.34766954    -0.05000
C714        C  0.47972352  0.78091192  0.34231972    -0.32400
C715        C  0.51219551  0.78270960  0.34134243     0.36800
C716        C  0.53065560  0.75586929  0.34597092    -0.05400
C717        C  0.51540261  0.72755936  0.35176434    -0.32300
C718        C  0.48272318  0.72576581  0.35266591     0.36700
H719        H  0.46656490  0.80205447  0.33845327     0.17100
O720        O  0.52543117  0.81107019  0.33566988    -0.59800
H721        H  0.52880275  0.70656997  0.35568183     0.17100
O722        O  0.46920274  0.69769222  0.35901355    -0.59900
H723        H  0.46801026  0.68668712  0.33855096     0.44100
H724        H  0.52731724  0.81223382  0.31261964     0.44100
C725        C  0.36360177  0.80870552  0.33964346    -0.05000
C726        C  0.33355425  0.80743041  0.32683039    -0.32400
C727        C  0.31267294  0.83220464  0.33045262     0.36800
C728        C  0.32135765  0.85888764  0.34772413    -0.05400
C729        C  0.35236911  0.86139170  0.35801402    -0.32300
C730        C  0.37349070  0.83662019  0.35395873     0.36700
H731        H  0.32567136  0.78651493  0.31499516     0.17100
O732        O  0.28326554  0.82923817  0.31842003    -0.59800
H733        H  0.35986558  0.88191982  0.37073561     0.17100
O734        O  0.40303240  0.83934779  0.36573776    -0.59900
H735        H  0.40151431  0.83248212  0.38775975     0.44100
H736        H  0.28459747  0.83778310  0.29698395     0.44100
C737        C  0.03232553  0.76029306  0.42940736    -0.05000
C738        C  0.01626006  0.78808054  0.42282148    -0.32400
C739        C  0.98355139  0.78925177  0.42171752     0.36800
C740        C  0.96573814  0.76228512  0.42738284    -0.05400
C741        C  0.98185104  0.73437502  0.43335645    -0.32300
C742        C  0.01451229  0.73321247  0.43457244     0.36700
H743        H  0.02905898  0.80927035  0.41855751     0.17100
O744        O  0.96941640  0.81711637  0.41539274    -0.59800
H745        H  0.96911247  0.71318671  0.43779285     0.17100
O746        O  0.02856107  0.70536870  0.44122615    -0.59900
H747        H  0.03022421  0.70499773  0.46440300     0.44100
H748        H  0.96775204  0.81774144  0.39223639     0.44100
C749        C  0.13350195  0.81666830  0.43238143    -0.05000
C750        C  0.16289404  0.81722417  0.44673397    -0.32400
C751        C  0.18438286  0.84054410  0.44016769     0.36800
C752        C  0.17702569  0.86381961  0.41837268    -0.05400
C753        C  0.14666908  0.86488485  0.40606332    -0.32300
C754        C  0.12491488  0.84160013  0.41301188     0.36700
H755        H  0.16979912  0.79872394  0.46232356     0.17100
O756        O  0.21302944  0.83942689  0.45420661    -0.59800
H757        H  0.14019370  0.88295009  0.38981406     0.17100
O758        O  0.09606014  0.84261037  0.39940105    -0.59900
H759        H  0.09880691  0.83280601  0.37849636     0.44100
H760        H  0.21079948  0.85223783  0.47354063     0.44100
C761        C  0.31995215  0.64917226  0.36796095    -0.05000
C762        C  0.35010201  0.64929181  0.38084540    -0.32400
C763        C  0.37150999  0.67272582  0.37332905     0.36800
C764        C  0.36280043  0.69665055  0.35279213    -0.05400
C765        C  0.33332743  0.69544357  0.33868450    -0.32300
C766        C  0.31209533  0.67213753  0.34598786     0.36700
H767        H  0.35673579  0.63189902  0.39775811     0.17100
O768        O  0.39980291  0.67331590  0.38807270    -0.59800
H769        H  0.32618004  0.71338084  0.32254950     0.17100
O770        O  0.28315678  0.67306255  0.33253887    -0.59900
H771        H  0.28534686  0.66125916  0.31261500     0.44100
H772        H  0.41354178  0.65970465  0.37516872     0.44100
C773        C  0.13361299  0.70398587  0.43754092    -0.05000
C774        C  0.16106682  0.70311677  0.45534848    -0.32400
C775        C  0.18212611  0.67827459  0.45252331     0.36800
C776        C  0.17608807  0.65364262  0.43136110    -0.05400
C777        C  0.14786917  0.65385120  0.41469771    -0.32300
C778        C  0.12688054  0.67880075  0.41746657     0.36700
H779        H  0.16675736  0.72236227  0.47082590     0.17100
O780        O  0.20924561  0.67925519  0.46935823    -0.59800
H781        H  0.14268626  0.63535148  0.39817487     0.17100
O782        O  0.10096552  0.67927320  0.39881717    -0.59900
H783        H  0.10775181  0.68937289  0.37919210     0.44100
H784        H  0.20433339  0.66897927  0.48941138     0.44100
O785        O  0.24310368  0.56478951  0.84706599    -0.57400
C786        C  0.29380034  0.62851194  0.88013837     0.75300
O787        O  0.22428577  0.62825479  0.93512090    -0.58500
C788        C  0.21974978  0.54755515  0.85173662     0.75200
C789        C  0.27194141  0.54662206  0.95007061     0.77600
Cd790      Cd  0.24600926  0.58567272  0.90155807     1.37500
O791        O  0.26639019  0.62835237  0.86951241    -0.57400
O792        O  0.27728460  0.54130869  0.92138423    -0.56200
C793        C  0.19773057  0.62911957  0.92245716     0.77600
O794        O  0.25290051  0.56834897  0.95632651    -0.58500
O795        O  0.29990162  0.60765258  0.89984638    -0.57000
O796        O  0.20985951  0.54622456  0.87962856    -0.57000
O797        O  0.19285278  0.60857022  0.90173516    -0.56200
C798        C  0.06563257  0.76092118  0.93115119     0.80700
N799        N  0.08174842  0.73354394  0.93321753    -0.77600
C800        C  0.11329006  0.73340696  0.93610039     0.83100
N801        N  0.12859629  0.76077830  0.93669569    -0.77600
C802        C  0.11335096  0.78825795  0.93419296     0.83200
N803        N  0.08176995  0.78827079  0.93130467    -0.79300
C804        C  0.42801628  0.75384259  0.84780184     0.80700
N805        N  0.41118269  0.72731222  0.85224117    -0.77600
C806        C  0.37945196  0.72812261  0.85101695     0.83100
N807        N  0.36487600  0.75550302  0.84549999    -0.77600
C808        C  0.38104800  0.78208796  0.84158890     0.83200
N809        N  0.41259008  0.78116106  0.84287403    -0.79300
O810        O  0.26895922  0.88087844  0.85244141    -0.57400
C811        C  0.22292342  0.96350243  0.83315265     0.75300
O812        O  0.19409539  0.90705103  0.88726535    -0.58500
C813        C  0.29761656  0.88500692  0.85752808     0.75200
C814        C  0.27405476  0.96323120  0.93314539     0.77600
Cd815      Cd  0.24895312  0.92600551  0.88241293     1.37500
O816        O  0.24168670  0.94144819  0.82741796    -0.57400
O817        O  0.27871025  0.97024634  0.90484010    -0.56200
C818        C  0.20009910  0.88613476  0.90699423     0.77600
O819        O  0.25659982  0.94020208  0.93806075    -0.58500
O820        O  0.21724754  0.96935884  0.86167990    -0.57000
O821        O  0.30430163  0.90894111  0.87354767    -0.57000
O822        O  0.22821675  0.88425816  0.91544731    -0.56200
C823        C  0.92933501  0.76236086  0.92769905     0.80700
N824        N  0.91386934  0.73467990  0.92727064    -0.77600
C825        C  0.88228903  0.73391370  0.92912994     0.83100
N826        N  0.86613056  0.76098156  0.93087698    -0.77600
C827        C  0.88088306  0.78874985  0.93070546     0.83200
N828        N  0.91253483  0.78936352  0.92908932    -0.79300
O829        O  0.75464095  0.57247634  0.83265025    -0.57400
C830        C  0.70059691  0.63171278  0.86382200     0.75300
O831        O  0.73969075  0.57862246  0.94286918    -0.58500
C832        C  0.77489345  0.55196276  0.83870491     0.75200
C833        C  0.79985349  0.63092447  0.90755622     0.77600
Cd834      Cd  0.74912295  0.59093737  0.88720322     1.37500
O835        O  0.72924893  0.63706525  0.86000239    -0.57400
O836        O  0.80407996  0.60972870  0.88727358    -0.56200
C837        C  0.72370056  0.55446317  0.93789936     0.77600
O838        O  0.77275687  0.63256951  0.91920704    -0.58500
O839        O  0.69407803  0.60666736  0.87755795    -0.57000
O840        O  0.78190586  0.54837361  0.86716426    -0.57000
O841        O  0.72032312  0.54631122  0.90961377    -0.56200
C842        C  0.56405526  0.75707243  0.84736562     0.80700
N843        N  0.57933367  0.78489515  0.84744138    -0.77600
C844        C  0.61093118  0.78577009  0.84600649     0.83100
N845        N  0.62708648  0.75876707  0.84478591    -0.77600
C846        C  0.61260948  0.73092335  0.84522285     0.83200
N847        N  0.58095798  0.73008000  0.84663043    -0.79300
O848        O  0.76494028  0.88271879  0.91319017    -0.57400
C849        C  0.71952626  0.96451733  0.93555791     0.75300
O850        O  0.75126941  0.94655632  0.83060677    -0.58500
C851        C  0.79351468  0.88740333  0.90798633     0.75200
C852        C  0.69548348  0.88783163  0.86336290     0.77600
Cd853      Cd  0.74491969  0.92836638  0.88513486     1.37500
O854        O  0.74070687  0.94460552  0.94013757    -0.57400
O855        O  0.69010848  0.90989493  0.88241569    -0.56200
C856        C  0.77155042  0.96682579  0.83717606     0.77600
O857        O  0.72319204  0.88573884  0.85332803    -0.58500
O858        O  0.71153076  0.96912831  0.90752551    -0.57000
O859        O  0.79984018  0.91132409  0.89228191    -0.57000
O860        O  0.77773795  0.97081671  0.86580125    -0.56200
C861        C  0.99780095  0.32375926  0.81069327     0.80700
N862        N  0.97017478  0.33969497  0.81073848    -0.77600
C863        C  0.96970634  0.37126973  0.81300600     0.83100
N864        N  0.99694526  0.38673157  0.81498389    -0.77600
C865        C  0.02462783  0.37167457  0.81473370     0.83200
N866        N  0.02504679  0.34007383  0.81231384    -0.79300
O867        O  0.84933977  0.55978410  0.76474773    -0.57400
C868        C  0.79177400  0.47939482  0.71617596     0.75300
O869        O  0.84474422  0.45104207  0.77621630    -0.58500
C870        C  0.86984150  0.55462096  0.74403245     0.75200
C871        C  0.79097621  0.53449910  0.81390794     0.77600
Cd872      Cd  0.82884135  0.50594539  0.76599227     1.37500
O873        O  0.81159536  0.50043987  0.71115870    -0.57400
O874        O  0.78686528  0.54053066  0.78532289    -0.56200
C875        C  0.87005240  0.45764349  0.78968230     0.77600
O876        O  0.81095580  0.51382404  0.82017049    -0.58500
O877        O  0.78777861  0.47165636  0.74436882    -0.57000
O878        O  0.87046596  0.52731604  0.73269468    -0.57000
O879        O  0.87579900  0.48630755  0.79278551    -0.56200
C880        C  0.99800924  0.68746792  0.72920335     0.80700
N881        N  0.97050448  0.67175920  0.72701097    -0.77600
C882        C  0.97029717  0.64021678  0.72414761     0.83100
N883        N  0.99763307  0.62449336  0.72372170    -0.77600
C884        C  0.02511831  0.63945484  0.72652139     0.83200
N885        N  0.02523417  0.67097524  0.72934427    -0.79300
O886        O  0.14960773  0.56043379  0.76612012    -0.57400
C887        C  0.20503240  0.47875955  0.72487747     0.75300
O888        O  0.17947102  0.51550154  0.83050106    -0.58500
C889        C  0.12532950  0.55357740  0.75091964     0.75200
C890        C  0.12635275  0.45634869  0.79585456     0.77600
Cd891      Cd  0.16711509  0.50568090  0.77453142     1.37500
O892        O  0.18659881  0.50117135  0.71973613    -0.57400
O893        O  0.14925932  0.45073156  0.77801298    -0.56200
C894        C  0.20364366  0.53147958  0.82585590     0.77600
O895        O  0.12323629  0.48435384  0.80468539    -0.58500
O896        O  0.20723288  0.47002690  0.75296325    -0.57000
O897        O  0.12115358  0.52492584  0.74567866    -0.57000
O898        O  0.21214072  0.53426686  0.79766023    -0.56200
C899        C  0.99740876  0.82341077  0.72934229     0.80700
N900        N  0.02502613  0.83901058  0.72821644    -0.77600
C901        C  0.02543904  0.87049646  0.72537546     0.83100
N902        N  0.99820828  0.88635826  0.72393504    -0.77600
C903        C  0.97060466  0.87140293  0.72561358     0.83200
N904        N  0.97027780  0.83996485  0.72847385    -0.79300
C905        C  0.00155689  0.18761301  0.81190072     0.80700
N906        N  0.97424251  0.17137190  0.81222728    -0.77600
C907        C  0.97434826  0.13977497  0.81404550     0.83100
N908        N  0.00199852  0.12459994  0.81543791    -0.77600
C909        C  0.02934271  0.14007908  0.81485822     0.83200
N910        N  0.02906639  0.17162383  0.81279070    -0.79300
O911        O  0.12666829  0.02751440  0.79274242    -0.57400
C912        C  0.20693265  0.98000526  0.80794382     0.75300
O913        O  0.14726157  0.95239526  0.76131768    -0.58500
C914        C  0.12855163  0.05531318  0.78369528     0.75200
C915        C  0.20634149  0.03036437  0.70941445     0.77600
Cd916      Cd  0.16860330  0.00571199  0.75941987     1.37500
O917        O  0.18668824  0.00071980  0.81375292    -0.57400
O918        O  0.21365022  0.03439880  0.73782826    -0.56200
C919        C  0.12753396  0.95557394  0.73973086     0.77600
O920        O  0.18297316  0.01335002  0.70403746    -0.58500
O921        O  0.21132625  0.97291096  0.77944259    -0.57000
O922        O  0.14943316  0.06055818  0.76357337    -0.57000
O923        O  0.12780565  0.98150604  0.72602313    -0.56200
O924        O  0.87661276  0.02705255  0.79206610    -0.57400
C925        C  0.78890912  0.98316132  0.81283535     0.75300
O926        O  0.81430369  0.01222162  0.70980578    -0.58500
C927        C  0.87218971  0.05590871  0.78911932     0.75200
C928        C  0.86921688  0.95703656  0.74634964     0.77600
Cd929      Cd  0.82931985  0.00831915  0.76562370     1.37500
O930        O  0.81049868  0.00192892  0.81964105    -0.57400
O931        O  0.84951901  0.95426673  0.76817307    -0.56200
C932        C  0.79248153  0.03161798  0.71434538     0.77600
O933        O  0.86928988  0.98296353  0.73255703    -0.58500
O934        O  0.78453195  0.97759702  0.78410095    -0.57000
O935        O  0.84711832  0.06350556  0.77566897    -0.57000
O936        O  0.78721908  0.03965486  0.74241792    -0.56200
C937        C  0.50016582  0.68563720  0.05707792     0.80700
N938        N  0.47285205  0.66958429  0.05810928    -0.77600
C939        C  0.47288888  0.63816850  0.06128747     0.83100
N940        N  0.50034415  0.62275490  0.06283777    -0.77600
C941        C  0.52775563  0.63807778  0.06125382     0.83200
N942        N  0.52759496  0.66956583  0.05834011    -0.79300
O943        O  0.69038322  0.51519755  0.95876228    -0.57400
C944        C  0.63105551  0.45850346  0.48774512     0.75300
O945        O  0.68658127  0.49753825  0.56658584    -0.58500
C946        C  0.70871151  0.53764241  0.96364271     0.75200
C947        C  0.63248469  0.55332033  0.53580628     0.77600
Cd948      Cd  0.67378263  0.50582484  0.51119998     1.37500
O949        O  0.62864945  0.48932101  0.98545078    -0.57400
O950        O  0.62758439  0.52589737  0.04409883    -0.56200
C951        C  0.71014781  0.48042574  0.56200313     0.77600
O952        O  0.65610442  0.56058841  0.51977219    -0.58500
O953        O  0.65561956  0.45110800  0.50225345    -0.57000
O954        O  0.71304585  0.54218298  0.49084817    -0.57000
O955        O  0.71835858  0.47613664  0.53380140    -0.56200
C956        C  0.50436629  0.32675509  0.96884090     0.80700
N957        N  0.53190672  0.34271687  0.96937155    -0.77600
C958        C  0.53189362  0.37447876  0.96962134     0.83100
N959        N  0.50438155  0.38997312  0.96967014    -0.77600
C960        C  0.47690710  0.37476763  0.96989961     0.83200
N961        N  0.47699985  0.34312939  0.96958167    -0.79300
O962        O  0.35307058  0.45079214  0.01814117    -0.57400
C963        C  0.28880340  0.53007095  0.97484926     0.75300
O964        O  0.31535159  0.49578934  0.57910755    -0.58500
C965        C  0.37351106  0.45760947  0.99800762     0.75200
C966        C  0.36983683  0.55477462  0.04214801     0.77600
Cd967      Cd  0.32904340  0.50420127  0.02245461     1.37500
O968        O  0.30762610  0.50810603  0.96868666    -0.57400
O969        O  0.34977221  0.55814241  0.02090423    -0.56200
C970        C  0.29304657  0.47745032  0.57352215     0.77600
O971        O  0.37331446  0.52644152  0.55619957    -0.58500
O972        O  0.28678173  0.53846495  0.00324385    -0.57000
O973        O  0.36949255  0.48303223  0.48508853    -0.57000
O974        O  0.28692203  0.47251842  0.54495092    -0.56200
C975        C  0.49881835  0.18948544  0.47011431     0.80700
N976        N  0.47130889  0.17410972  0.47411478    -0.77600
C977        C  0.47087107  0.14263378  0.47645308     0.83100
N978        N  0.49786407  0.12652011  0.47439098    -0.77600
C979        C  0.52540561  0.14102326  0.47043337     0.83200
N980        N  0.52595415  0.17265781  0.46865094    -0.79300
C981        C  0.49744908  0.81912194  0.54237753     0.80700
N982        N  0.52447257  0.83564841  0.54452880    -0.77600
C983        C  0.52421389  0.86711536  0.54195885     0.83100
N984        N  0.49705733  0.88199977  0.53641593    -0.77600
C985        C  0.47005918  0.86616802  0.53382055     0.83200
N986        N  0.47013360  0.83468301  0.53706919    -0.79300
O987        O  0.64852028  0.05899861  0.50656910    -0.57400
C988        C  0.70342472  0.97993051  0.96153880     0.75300
O989        O  0.68084083  0.00941341  0.56756298    -0.58500
C990        C  0.62485953  0.05293993  0.49006747     0.75200
C991        C  0.62526838  0.95320907  0.52987328     0.77600
Cd992      Cd  0.66599391  0.00365546  0.51164016     1.37500
O993        O  0.68183053  0.99933206  0.95672724    -0.57400
O994        O  0.65011120  0.94826207  0.51466068    -0.56200
C995        C  0.70361792  0.02729772  0.56269978     0.77600
O996        O  0.62028257  0.98113321  0.53814474    -0.58500
O997        O  0.70700210  0.97085219  0.48821745    -0.57000
O998        O  0.62115821  0.02461071  0.48295196    -0.57000
O999        O  0.70997077  0.03298886  0.53443477    -0.56200
O1000       O  0.30807030  0.01033347  0.56164957    -0.57400
C1001       C  0.37099404  0.95489578  0.51589500     0.75300
O1002       O  0.30741868  0.00255692  0.95417209    -0.58500
C1003       C  0.28984446  0.03302115  0.55707365     0.75200
C1004       C  0.36984029  0.05791717  0.49782384     0.77600
Cd1005     Cd  0.32780823  0.00638582  0.50713454     1.37500
O1006       O  0.35031302  0.96122497  0.53621056    -0.57400
O1007       O  0.37155229  0.03944735  0.52059398    -0.56200
C1008       C  0.28978353  0.97957075  0.95892643     0.77600
O1009       O  0.34685034  0.05544963  0.98394782    -0.58500
O1010       O  0.37142315  0.97227240  0.49221095    -0.57000
O1011       O  0.28739641  0.04212438  0.52911473    -0.57000
O1012       O  0.28736479  0.97140771  0.48584222    -0.56200
O1013       O  0.22607062  0.37969073  0.62033029    -0.57400
C1014       C  0.27628520  0.46145442  0.59891935     0.75300
O1015       O  0.23830934  0.43868831  0.70454435    -0.58500
C1016       C  0.19759469  0.38493376  0.62609463     0.75200
C1017       C  0.29811186  0.38378775  0.67053595     0.77600
Cd1018     Cd  0.24815223  0.42494561  0.64887873     1.37500
O1019       O  0.25489345  0.44199789  0.59346532    -0.57400
O1020       O  0.26979624  0.37926870  0.67731350    -0.56200
C1021       C  0.22166297  0.46239985  0.69940147     0.77600
O1022       O  0.30359711  0.40811222  0.65516328    -0.58500
O1023       O  0.28350856  0.46539089  0.62734913    -0.57000
O1024       O  0.19194595  0.40962724  0.64141042    -0.57000
O1025       O  0.21881757  0.47021437  0.67110135    -0.56200
C1026       C  0.43113493  0.25392295  0.68048599     0.80700
N1027       N  0.41480560  0.22662327  0.67981833    -0.77600
C1028       C  0.38314697  0.22681999  0.68291365     0.83100
N1029       N  0.36815432  0.25437864  0.68644766    -0.77600
C1030       C  0.38365093  0.28165852  0.68679700     0.83200
N1031       N  0.41520326  0.28140071  0.68359771    -0.79300
O1032       O  0.25605256  0.07218904  0.57884500    -0.57400
C1033       C  0.19730158  0.12678292  0.61702556     0.75300
O1034       O  0.24444758  0.06541952  0.68951212    -0.58500
C1035       C  0.27384037  0.04912478  0.58318498     0.75200
C1036       C  0.29627518  0.12665157  0.65952627     0.77600
Cd1037     Cd  0.24797608  0.08518585  0.63535806     1.37500
O1038       O  0.19226085  0.10304599  0.63348004    -0.57400
O1039       O  0.30292041  0.10315798  0.64274043    -0.56200
C1040       C  0.22262567  0.04647811  0.68406052     0.77600
O1041       O  0.26776381  0.12994245  0.66625698    -0.58500
O1042       O  0.22513928  0.13018452  0.60792402    -0.57000
O1043       O  0.27843284  0.04163450  0.61133672    -0.57000
O1044       O  0.21412529  0.04367306  0.65586592    -0.56200
C1045       C  0.06344689  0.25614017  0.60775724     0.80700
N1046       N  0.07907882  0.28384550  0.60852095    -0.77600
C1047       C  0.11072802  0.28443215  0.60590028     0.83100
N1048       N  0.12645928  0.25721519  0.60274241    -0.77600
C1049       C  0.11164237  0.22953563  0.60223156     0.83200
N1050       N  0.08007301  0.22906505  0.60490592    -0.79300
C1051       C  0.92717379  0.25210331  0.60675406     0.80700
N1052       N  0.91116154  0.27955134  0.60583693    -0.77600
C1053       C  0.87967153  0.27990820  0.60253973     0.83100
N1054       N  0.86416238  0.25258598  0.60057763    -0.77600
C1055       C  0.87947227  0.22501676  0.60182136     0.83200
N1056       N  0.91100827  0.22486157  0.60513742    -0.79300
O1057       O  0.69319630  0.09801056  0.64951576    -0.57400
C1058       C  0.77527980  0.04555346  0.68830691     0.75300
O1059       O  0.74330473  0.06026479  0.58336120    -0.58500
C1060       C  0.70094396  0.12543705  0.65687729     0.75200
C1061       C  0.79741999  0.12020541  0.61645820     0.77600
Cd1062     Cd  0.74773534  0.08006759  0.63761184     1.37500
O1063       O  0.75421620  0.06571596  0.69304228    -0.57400
O1064       O  0.80068536  0.10163280  0.63895321    -0.56200
C1065       C  0.72050369  0.04247723  0.58845290     0.77600
O1066       O  0.77178153  0.11854541  0.60195215    -0.58500
O1067       O  0.78182888  0.03926673  0.66005447    -0.57000
O1068       O  0.72978287  0.13093590  0.65644716    -0.57000
O1069       O  0.71182938  0.03998626  0.61661577    -0.56200
C1070       C  0.56754509  0.25618538  0.67492908     0.80700
N1071       N  0.58391732  0.22874931  0.67401204    -0.77600
C1072       C  0.61565881  0.22892340  0.67357944     0.83100
N1073       N  0.63055065  0.25646162  0.67369725    -0.77600
C1074       C  0.61514823  0.28383895  0.67427813     0.83200
N1075       N  0.58343410  0.28375744  0.67484727    -0.79300
O1076       O  0.72979955  0.37795704  0.65611053    -0.57400
C1077       C  0.77559654  0.46358190  0.69035382     0.75300
O1078       O  0.80358181  0.40665403  0.63995605    -0.58500
C1079       C  0.70123009  0.38492144  0.65703141     0.75200
C1080       C  0.72566826  0.46481631  0.58813851     0.77600
Cd1081     Cd  0.74989113  0.42793186  0.63882111     1.37500
O1082       O  0.75739547  0.44103808  0.69501743    -0.57400
O1083       O  0.71603437  0.46817260  0.61596527    -0.56200
C1084       C  0.79955916  0.38687740  0.61826691     0.77600
O1085       O  0.74804237  0.44602862  0.58387446    -0.58500
O1086       O  0.78039386  0.47085772  0.66215253    -0.57000
O1087       O  0.69449151  0.41270627  0.65027503    -0.57000
O1088       O  0.77342616  0.38784304  0.60468179    -0.56200
C1089       C  0.63421621  0.31259956  0.67398043    -0.05000
C1090       C  0.66460642  0.31078088  0.68603054    -0.32400
C1091       C  0.68603819  0.33453885  0.68151391     0.36800
C1092       C  0.67742032  0.36137036  0.66500321    -0.05400
C1093       C  0.64649698  0.36425277  0.65445163    -0.32300
C1094       C  0.62493707  0.34002289  0.65875484     0.36700
H1095       H  0.67234179  0.29015346  0.69817858     0.17100
O1096       O  0.71578778  0.33066879  0.69246238    -0.59800
H1097       H  0.63944189  0.38462714  0.64152178     0.17100
O1098       O  0.59586730  0.34238832  0.64582558    -0.59900
H1099       H  0.58342753  0.35460801  0.66118759     0.44100
H1100       H  0.71550862  0.33953979  0.71395343     0.44100
C1101       C  0.67786576  0.15018122  0.66460046    -0.05000
C1102       C  0.64624783  0.14674338  0.65659989    -0.32400
C1103       C  0.62500456  0.17154772  0.66051419     0.36800
C1104       C  0.63526005  0.20025389  0.67279869    -0.05400
C1105       C  0.66653497  0.20284739  0.68226406    -0.32300
C1106       C  0.68760738  0.17841295  0.67826597     0.36700
H1107       H  0.63820029  0.12520119  0.64615234     0.17100
O1108       O  0.59472467  0.16773747  0.65124428    -0.59800
H1109       H  0.67515366  0.22436535  0.69230348     0.17100
O1110       O  0.71797302  0.18289585  0.68705050    -0.59900
H1111       H  0.71960725  0.17377778  0.70822981     0.44100
H1112       H  0.59426730  0.17426247  0.62906287     0.44100
C1113       C  0.82131763  0.14396540  0.60894006    -0.05000
C1114       C  0.81429355  0.16725842  0.58724463    -0.32400
C1115       C  0.83366607  0.19315826  0.58381553     0.36800
C1116       C  0.86124468  0.19575457  0.60150208    -0.05400
C1117       C  0.86952146  0.17136585  0.62142080    -0.32300
C1118       C  0.84964732  0.14590163  0.62560846     0.36700
H1119       H  0.79287590  0.16629023  0.57395280     0.17100
O1120       O  0.82534081  0.21593619  0.56316794    -0.59800
H1121       H  0.89055796  0.17290580  0.63525998     0.17100
O1122       O  0.85775902  0.12359407  0.64683202    -0.59900
H1123       H  0.85075079  0.13190820  0.66742106     0.44100
H1124       H  0.80760690  0.22706819  0.57320972     0.44100
C1125       C  0.86180963  0.30952281  0.60263261    -0.05000
C1126       C  0.87139727  0.33464486  0.62143892    -0.32400
C1127       C  0.85209697  0.36079421  0.62578528     0.36800
C1128       C  0.82301221  0.36248219  0.61049529    -0.05400
C1129       C  0.81467409  0.33834748  0.58986221    -0.32300
C1130       C  0.83357841  0.31206383  0.58603841     0.36700
H1131       H  0.89307815  0.33328256  0.63425066     0.17100
O1132       O  0.86153240  0.38403653  0.64575093    -0.59800
H1133       H  0.79261686  0.33906531  0.57765705     0.17100
O1134       O  0.82357398  0.28850367  0.56676652    -0.59900
H1135       H  0.83524385  0.29114643  0.54692738     0.44100
H1136       H  0.85528410  0.37710147  0.66691290     0.44100
C1137       C  0.02851776  0.25511624  0.60923230    -0.05000
C1138       C  0.01288569  0.22714274  0.60230028    -0.32400
C1139       C  0.98021958  0.22554043  0.60196277     0.36800
C1140       C  0.96201976  0.25225074  0.60872124    -0.05400
C1141       C  0.97762142  0.28001272  0.61638992    -0.32300
C1142       C  0.01028335  0.28157281  0.61688590     0.36700
H1143       H  0.02598724  0.20630021  0.59646887     0.17100
O1144       O  0.96651890  0.19770412  0.59449761    -0.59800
H1145       H  0.96446952  0.30087406  0.62204569     0.17100
O1146       O  0.02396339  0.30930856  0.62470003    -0.59900
H1147       H  0.02551380  0.30922123  0.64781191     0.44100
H1148       H  0.96408886  0.19789111  0.57147859     0.44100
C1149       C  0.17269674  0.15015406  0.60964598    -0.05000
C1150       C  0.18016715  0.17484347  0.58977573    -0.32400
C1151       C  0.15971601  0.19990174  0.58577594     0.36800
C1152       C  0.13064691  0.20054094  0.60127346    -0.05400
C1153       C  0.12204727  0.17479773  0.61928597    -0.32300
C1154       C  0.14287333  0.14988832  0.62381093     0.36700
H1155       H  0.20260982  0.17547967  0.57816814     0.17100
O1156       O  0.16858226  0.22391245  0.56685026    -0.59800
H1157       H  0.09994911  0.17487635  0.63157786     0.17100
O1158       O  0.13463105  0.12666676  0.64392127    -0.59900
H1159       H  0.12210832  0.11196039  0.63118480     0.44100
H1160       H  0.18396975  0.23596851  0.57920682     0.44100
C1161       C  0.46607907  0.25410594  0.67847592    -0.05000
C1162       C  0.48262919  0.28016932  0.68955280    -0.32400
C1163       C  0.51532999  0.28114816  0.68870464     0.36800
C1164       C  0.53263888  0.25589931  0.67617791    -0.05400
C1165       C  0.51615604  0.22987246  0.66497639    -0.32300
C1166       C  0.48339302  0.22879635  0.66603594     0.36700
H1167       H  0.47020025  0.29988206  0.69952424     0.17100
O1168       O  0.53002582  0.30683289  0.70075580    -0.59800
H1169       H  0.52869281  0.21024071  0.65496811     0.17100
O1170       O  0.46861052  0.20331548  0.65369567    -0.59900
H1171       H  0.47013234  0.18711158  0.67001750     0.44100
H1172       H  0.53400104  0.30190053  0.72298346     0.44100
C1173       C  0.32019211  0.14976921  0.66942568    -0.05000
C1174       C  0.35053560  0.14825679  0.65683898    -0.32400
C1175       C  0.37220203  0.17216107  0.66236163     0.36800
C1176       C  0.36381677  0.19811928  0.68097338    -0.05400
C1177       C  0.33416906  0.19852478  0.69512546    -0.32300
C1178       C  0.31243488  0.17504197  0.68927553     0.36700
H1179       H  0.35708645  0.12920879  0.64138582     0.17100
O1180       O  0.40041501  0.17109133  0.64731200    -0.59800
H1181       H  0.32716983  0.21793864  0.70991417     0.17100
O1182       O  0.28339022  0.17758122  0.70253321    -0.59900
H1183       H  0.27156526  0.19172529  0.68864320     0.44100
H1184       H  0.41357916  0.15716091  0.66008546     0.44100
C1185       C  0.17270863  0.36257250  0.61665616    -0.05000
C1186       C  0.14290524  0.36377381  0.63065478    -0.32400
C1187       C  0.12123433  0.33957640  0.62595847     0.36800
C1188       C  0.12922221  0.31371855  0.60693979    -0.05400
C1189       C  0.15792214  0.31404909  0.59105978    -0.32300
C1190       C  0.17933540  0.33803528  0.59556711     0.36700
H1191       H  0.13695956  0.38264583  0.64657053     0.17100
O1192       O  0.09317990  0.34073104  0.64134332    -0.59800
H1193       H  0.16438835  0.29491645  0.57566717     0.17100
O1194       O  0.20732448  0.33644689  0.58010261    -0.59900
H1195       H  0.20331254  0.34556404  0.55929399     0.44100
H1196       H  0.09692818  0.33053758  0.66170347     0.44100
C1197       C  0.32294924  0.36101572  0.67887615    -0.05000
C1198       C  0.31628800  0.33744191  0.70034575    -0.32400
C1199       C  0.33694860  0.31255264  0.70471787     0.36800
C1200       C  0.36521639  0.31097466  0.68781540    -0.05400
C1201       C  0.37308034  0.33574847  0.66822052    -0.32300
C1202       C  0.35221780  0.36055711  0.66359031     0.36700
H1203       H  0.29432866  0.33753059  0.71288753     0.17100
O1204       O  0.32904917  0.28952094  0.72524535    -0.59800
H1205       H  0.39450696  0.33487183  0.65479280     0.17100
O1206       O  0.35968851  0.38278219  0.64209050    -0.59900
H1207       H  0.37012834  0.39943632  0.65425177     0.44100
H1208       H  0.31277699  0.27714840  0.71446456     0.44100
C1209       C  0.55299841  0.88566473  0.54353912    -0.05000
C1210       C  0.57809417  0.87855382  0.52365025    -0.32400
C1211       C  0.60269590  0.89962261  0.51998736     0.36800
C1212       C  0.60247303  0.92824101  0.53658735    -0.05400
C1213       C  0.57828007  0.93420876  0.55800706    -0.32300
C1214       C  0.55363143  0.91334172  0.56137347     0.36700
H1215       H  0.57766337  0.85756746  0.50942907     0.17100
O1216       O  0.62544191  0.89301903  0.49832082    -0.59800
H1217       H  0.57778682  0.95572273  0.57139587     0.17100
O1218       O  0.52997029  0.92034033  0.58194775    -0.59900
H1219       H  0.51668957  0.93570511  0.57106003     0.44100
H1220       H  0.64339588  0.88104953  0.01847117     0.44100
C1221       C  0.44162261  0.88402912  0.52646518    -0.05000
C1222       C  0.41675376  0.88554482  0.54777274    -0.32400
C1223       C  0.39311961  0.90805250  0.54450054     0.36800
C1224       C  0.39398004  0.92913505  0.51932343    -0.05400
C1225       C  0.41812685  0.92625124  0.49720974    -0.32300
C1226       C  0.44181790  0.90421938  0.50076119     0.36700
H1227       H  0.41664154  0.87056178  0.56799919     0.17100
O1228       O  0.37029348  0.91020986  0.56691014    -0.59800
H1229       H  0.42242749  0.94904959  0.98540339     0.17100
O1230       O  0.47053781  0.91336114  0.98940428    -0.59900
H1231       H  0.46707118  0.90121766  0.96992520     0.44100
H1232       H  0.35419846  0.89508099  0.56033124     0.44100
C1233       C  0.60198627  0.07725770  0.48075926    -0.05000
C1234       C  0.60427566  0.10773056  0.49292639    -0.32400
C1235       C  0.58049478  0.12974094  0.48803681     0.36800
C1236       C  0.55399738  0.12153476  0.47054593    -0.05400
C1237       C  0.55266650  0.09173470  0.45687002    -0.32300
C1238       C  0.57622516  0.06977675  0.46174342     0.36700
H1239       H  0.62383923  0.11413671  0.50752123     0.17100
O1240       O  0.58252839  0.15844998  0.50208822    -0.59800
H1241       H  0.53254264  0.08495762  0.44321122     0.17100
O1242       O  0.57340378  0.04086115  0.44823352    -0.59900
H1243       H  0.55975752  0.02900767  0.46257650     0.44100
H1244       H  0.57130419  0.15166071  0.02795924     0.44100
C1245       C  0.39321289  0.08293993  0.49390465    -0.05000
C1246       C  0.41967937  0.08240253  0.51305685    -0.32400
C1247       C  0.44391343  0.10329813  0.50868298     0.36800
C1248       C  0.44240055  0.12535761  0.48462728    -0.05400
C1249       C  0.41515750  0.12762516  0.46671902    -0.32300
C1250       C  0.39060369  0.10643490  0.47112179     0.36700
H1251       H  0.42218950  0.06502157  0.53106048     0.17100
O1252       O  0.46964328  0.10124897  0.52751838    -0.59800
H1253       H  0.41434505  0.14650219  0.95527127     0.17100
O1254       O  0.36583743  0.10984782  0.95807755    -0.59900
H1255       H  0.37151248  0.10024899  0.93765722     0.44100
H1256       H  0.46698012  0.11802264  0.54338576     0.44100
C1257       C  0.49940084  0.22440230  0.46891532    -0.05000
C1258       C  0.52794294  0.24020093  0.46610435    -0.32400
C1259       C  0.53012725  0.27320531  0.96191601     0.36800
C1260       C  0.50172585  0.29092158  0.46780032    -0.05400
C1261       C  0.47324431  0.27507071  0.47046923    -0.32300
C1262       C  0.47187913  0.24250924  0.47127487     0.36700
H1263       H  0.54955489  0.22721589  0.46445237     0.17100
O1264       O  0.55800110  0.28657640  0.95418801    -0.59800
H1265       H  0.45156828  0.28793055  0.47226551     0.17100
O1266       O  0.44325162  0.22884052  0.47425218    -0.59900
H1267       H  0.43892804  0.22876062  0.49709310     0.44100
H1268       H  0.55831847  0.28697122  0.93096626     0.44100
C1269       C  0.44774879  0.39337268  0.97297935    -0.05000
C1270       C  0.43964049  0.41849814  0.45237947    -0.32400
C1271       C  0.41529523  0.43920422  0.45970679     0.36800
C1272       C  0.39789011  0.43496366  0.98727000    -0.05400
C1273       C  0.39812623  0.40440671  0.99885284    -0.32300
C1274       C  0.42274765  0.38375227  0.99193109     0.36700
H1275       H  0.45624550  0.42472120  0.43437734     0.17100
O1276       O  0.41272965  0.46625908  0.44316368    -0.59800
H1277       H  0.37972526  0.39678310  0.01432607     0.17100
O1278       O  0.42292201  0.35487995  0.00525974    -0.59900
H1279       H  0.43298477  0.35783062  0.02592220     0.44100
H1280       H  0.42778380  0.48078759  0.45301291     0.44100
C1281       C  0.56083623  0.39329089  0.97125637    -0.05000
C1282       C  0.56104623  0.42233106  0.95643837    -0.32400
C1283       C  0.58482344  0.44381702  0.96180010     0.36800
C1284       C  0.60687859  0.43528382  0.47883445    -0.05400
C1285       C  0.60736262  0.40532790  0.49186748    -0.32300
C1286       C  0.58267800  0.38443318  0.48697086     0.36700
H1287       H  0.54201787  0.42887561  0.94122866     0.17100
O1288       O  0.58338083  0.47201219  0.94714626    -0.59800
H1289       H  0.62625394  0.39853025  0.50711084     0.17100
O1290       O  0.58278508  0.35663026  0.50239061    -0.59900
H1291       H  0.59502203  0.34224935  0.48883381     0.44100
H1292       H  0.59563735  0.46920879  0.92764026     0.44100
C1293       C  0.50153399  0.71869356  0.55371218    -0.05000
C1294       C  0.47404237  0.73313181  0.54327096    -0.32400
C1295       C  0.47221705  0.76547816  0.53933509     0.36800
C1296       C  0.49823373  0.78446423  0.54592186    -0.05400
C1297       C  0.52576333  0.76990679  0.55622226    -0.32300
C1298       C  0.52708069  0.73771136  0.04899178     0.36700
H1299       H  0.45372524  0.71927316  0.53784955     0.17100
O1300       O  0.44503575  0.77800424  0.52827122    -0.59800
H1301       H  0.54700225  0.78270725  0.04256271     0.17100
O1302       O  0.55562051  0.72347721  0.04652578    -0.59900
H1303       H  0.55902943  0.72025976  0.02373308     0.44100
H1304       H  0.43149665  0.78076558  0.54697240     0.44100
C1305       C  0.55692698  0.61959239  0.05996939    -0.05000
C1306       C  0.55783169  0.59063957  0.07492676    -0.32400
C1307       C  0.58234909  0.56970791  0.06960967     0.36800
C1308       C  0.60916374  0.57659578  0.54663964    -0.05400
C1309       C  0.60973426  0.60709251  0.53503450    -0.32300
C1310       C  0.58509817  0.62789557  0.54117377     0.36700
H1311       H  0.53876780  0.58362719  0.08991383     0.17100
O1312       O  0.58172510  0.54130444  0.08393654    -0.59800
H1313       H  0.62850255  0.61437152  0.51981888     0.17100
O1314       O  0.58548480  0.65664944  0.52759485    -0.59900
H1315       H  0.57623637  0.65353353  0.50657991     0.44100
H1316       H  0.56666673  0.52865969  0.07170545     0.44100
C1317       C  0.39326232  0.57907918  0.04977613    -0.05000
C1318       C  0.41760801  0.57176322  0.57666799    -0.32400
C1319       C  0.44250134  0.59201510  0.58236938     0.36800
C1320       C  0.44377432  0.62002284  0.05999494    -0.05400
C1321       C  0.42151257  0.62652322  0.03701815    -0.32300
C1322       C  0.39671478  0.60607715  0.03144479     0.36700
H1323       H  0.41530899  0.55124410  0.59097706     0.17100
O1324       O  0.46289883  0.58560809  0.60612233    -0.59800
H1325       H  0.42443542  0.64644664  0.02197913     0.17100
O1326       O  0.37687859  0.61209969  0.00714516    -0.59900
H1327       H  0.38695219  0.60258170  0.98843574     0.44100
H1328       H  0.47713080  0.56938956  0.59758138     0.44100
C1329       C  0.10673709  0.07972599  0.79544220    -0.05000
C1330       C  0.08500025  0.07207437  0.81872170    -0.32400
C1331       C  0.06123935  0.09281004  0.82731512     0.36800
C1332       C  0.05856363  0.12178595  0.81238933    -0.05400
C1333       C  0.08174799  0.13059468  0.79108138    -0.32300
C1334       C  0.10573359  0.10986007  0.78257185     0.36700
H1335       H  0.08564466  0.04942555  0.82958247     0.17100
O1336       O  0.03984181  0.08390732  0.84933779    -0.59800
H1337       H  0.08014037  0.15277740  0.77938735     0.17100
O1338       O  0.12671618  0.11860737  0.76012481    -0.59900
H1339       H  0.14303500  0.13029877  0.77161105     0.44100
H1340       H  0.04923285  0.08958706  0.86975206     0.44100
C1341       C  0.94532745  0.12092858  0.81218923    -0.05000
C1342       C  0.94622445  0.09019846  0.82306763    -0.32400
C1343       C  0.92183666  0.06955345  0.81733832     0.36800
C1344       C  0.89574618  0.07904338  0.79981863    -0.05400
C1345       C  0.89362702  0.11043047  0.79089731    -0.32300
C1346       C  0.91807457  0.13134844  0.79705476     0.36700
H1347       H  0.96644911  0.08168530  0.83548392     0.17100
O1348       O  0.92441904  0.03973145  0.82812980    -0.59800
H1349       H  0.87355448  0.11852107  0.77798210     0.17100
O1350       O  0.91550252  0.16144065  0.78703862    -0.59900
H1351       H  0.92394129  0.16124841  0.76543146     0.44100
H1352       H  0.91504894  0.04032258  0.84936038     0.44100
C1353       C  0.05477817  0.88832715  0.72555997    -0.05000
C1354       C  0.05803164  0.91329312  0.70491970    -0.32400
C1355       C  0.08261887  0.93437280  0.70800765     0.36800
C1356       C  0.10441432  0.93093842  0.73237575    -0.05400
C1357       C  0.10210660  0.90484720  0.75190699    -0.32300
C1358       C  0.07751537  0.88369445  0.74868574     0.36700
H1359       H  0.04079079  0.91706241  0.68687137     0.17100
O1360       O  0.08471280  0.95852544  0.68739827    -0.59800
H1361       H  0.11854760  0.90157551  0.77076992     0.17100
O1362       O  0.07488470  0.85975049  0.76948152    -0.59900
H1363       H  0.06351272  0.86866164  0.78771746     0.44100
H1364       H  0.06983208  0.97448317  0.69530465     0.44100
C1365       C  0.94161493  0.88998529  0.72698696    -0.05000
C1366       C  0.91886910  0.88340894  0.74956633    -0.32400
C1367       C  0.89435198  0.90434773  0.75547826     0.36800
C1368       C  0.89196833  0.93211114  0.73814110    -0.05400
C1369       C  0.91362295  0.93740872  0.71410379    -0.32300
C1370       C  0.93835942  0.91684714  0.70866549     0.36700
H1371       H  0.92122679  0.86302169  0.76408398     0.17100
O1372       O  0.87427431  0.89839760  0.77967328    -0.59800
H1373       H  0.91226817  0.95835135  0.70029106     0.17100
O1374       O  0.96006873  0.92404558  0.68629427    -0.59900
H1375       H  0.95537346  0.91023919  0.66823708     0.44100
H1376       H  0.85651828  0.88729453  0.76997117     0.44100
C1377       C  0.99814034  0.72227328  0.73113603    -0.05000
C1378       C  0.96982735  0.73881124  0.72996509    -0.32400
C1379       C  0.96904032  0.77142693  0.73031499     0.36800
C1380       C  0.99704040  0.78864651  0.73113312    -0.05400
C1381       C  0.02528873  0.77212244  0.73320811    -0.32300
C1382       C  0.02603959  0.73950974  0.73347295     0.36700
H1383       H  0.94793253  0.72648117  0.72861429     0.17100
O1384       O  0.94061565  0.78601165  0.72927571    -0.59800
H1385       H  0.04717609  0.78446417  0.73455681     0.17100
O1386       O  0.05431048  0.72493030  0.73650235    -0.59900
H1387       H  0.06280351  0.72326580  0.71494547     0.44100
H1388       H  0.93401944  0.78831877  0.75146657     0.44100
C1389       C  0.05392141  0.62054603  0.72887349    -0.05000
C1390       C  0.05531040  0.59182878  0.71298500    -0.32400
C1391       C  0.07918157  0.57047240  0.71880205     0.36800
C1392       C  0.10241590  0.57749654  0.74097813    -0.05400
C1393       C  0.10210597  0.60700527  0.75552104    -0.32300
C1394       C  0.07800333  0.62836901  0.74979409     0.36700
H1395       H  0.03712425  0.58539780  0.69666484     0.17100
O1396       O  0.07882366  0.54232084  0.70347484    -0.59800
H1397       H  0.11967790  0.61295338  0.77266137     0.17100
O1398       O  0.07722530  0.65589470  0.76625590    -0.59900
H1399       H  0.06548941  0.65134550  0.78568541     0.44100
H1400       H  0.09053625  0.54570843  0.68375765     0.44100
C1401       C  0.89266623  0.57877760  0.73473648    -0.05000
C1402       C  0.89226521  0.60815198  0.74963109    -0.32400
C1403       C  0.91630261  0.62961143  0.74473669     0.36800
C1404       C  0.94114343  0.62197834  0.72446496    -0.05400
C1405       C  0.94040851  0.59356609  0.70802279    -0.32300
C1406       C  0.91664088  0.57205528  0.71304537     0.36700
H1407       H  0.87408779  0.61397822  0.76633158     0.17100
O1408       O  0.91630551  0.65697427  0.76148866    -0.59800
H1409       H  0.95924919  0.58730550  0.69222044     0.17100
O1410       O  0.91781077  0.54408757  0.69738966    -0.59900
H1411       H  0.93161225  0.53065201  0.71014648     0.44100
H1412       H  0.92828161  0.65248973  0.78074480     0.44100
C1413       C  0.99837545  0.28887058  0.80955709    -0.05000
C1414       C  0.02698590  0.27291687  0.80692805    -0.32400
C1415       C  0.02854091  0.24025919  0.80717313     0.36800
C1416       C  0.00108967  0.22244733  0.81035866    -0.05400
C1417       C  0.97247258  0.23840535  0.81225060    -0.32300
C1418       C  0.97089297  0.27098862  0.81172563     0.36700
H1419       H  0.04850147  0.28575036  0.80463878     0.17100
O1420       O  0.05704369  0.22616752  0.80344315    -0.59800
H1421       H  0.95090528  0.22562976  0.81433060     0.17100
O1422       O  0.94213457  0.28490644  0.81309303    -0.59900
H1423       H  0.93682081  0.28608541  0.83569077     0.44100
H1424       H  0.06719828  0.22767957  0.82420921     0.44100
C1425       C  0.05351364  0.39056816  0.81503518    -0.05000
C1426       C  0.08007198  0.38079360  0.79831600    -0.32400
C1427       C  0.10497503  0.40129248  0.79326464     0.36800
C1428       C  0.10345818  0.43216879  0.80490010    -0.05400
C1429       C  0.07807629  0.44087449  0.82379153    -0.32300
C1430       C  0.05335590  0.42052416  0.82888564     0.36700
H1431       H  0.08083689  0.35783786  0.78767959     0.17100
O1432       O  0.12979548  0.39133263  0.77552683    -0.59800
H1433       H  0.07666249  0.46408401  0.83378703     0.17100
O1434       O  0.02893756  0.43029900  0.84736104    -0.59900
H1435       H  0.01708369  0.44528744  0.83447654     0.44100
H1436       H  0.14600798  0.38537615  0.79083404     0.44100
C1437       C  0.94053885  0.38987155  0.81179856    -0.05000
C1438       C  0.93983266  0.41889914  0.82720274    -0.32400
C1439       C  0.91617403  0.44051272  0.82147099     0.36800
C1440       C  0.89235431  0.43336168  0.80004036    -0.05400
C1441       C  0.89150796  0.40332453  0.78665660    -0.32300
C1442       C  0.91539396  0.38164783  0.79235455     0.36700
H1443       H  0.95847341  0.42543977  0.84293727     0.17100
O1444       O  0.91668983  0.46865206  0.83685866    -0.59800
H1445       H  0.87319324  0.39715786  0.77040407     0.17100
O1446       O  0.91476315  0.35329805  0.77742152    -0.59900
H1447       H  0.92539016  0.35656615  0.75709841     0.44100
H1448       H  0.93244572  0.48121925  0.82565519     0.44100
C1449       C  0.62873596  0.81521994  0.84608922    -0.05000
C1450       C  0.65707197  0.81582377  0.82965801    -0.32400
C1451       C  0.67805427  0.84022670  0.83356034     0.36800
C1452       C  0.67121473  0.86477338  0.85459642    -0.05400
C1453       C  0.64181961  0.86536831  0.86941629    -0.32300
C1454       C  0.62053383  0.84092823  0.86509884     0.36700
H1455       H  0.66364233  0.79652893  0.81449765     0.17100
O1456       O  0.70600741  0.83875349  0.81802064    -0.59800
H1457       H  0.63585520  0.88406937  0.88553061     0.17100
O1458       O  0.59311147  0.84121834  0.88161081    -0.59900
H1459       H  0.57772829  0.85104319  0.86752587     0.44100
H1460       H  0.70176313  0.84731881  0.79698352     0.44100
C1461       C  0.67628627  0.65427749  0.85420169    -0.05000
C1462       C  0.64557173  0.65138873  0.86538689    -0.32400
C1463       C  0.62358862  0.67523615  0.86097337     0.36800
C1464       C  0.63224819  0.70247028  0.84515884    -0.05400
C1465       C  0.66219119  0.70410675  0.83190448    -0.32300
C1466       C  0.68397521  0.68037221  0.83610103     0.36700
H1467       H  0.63895810  0.63132259  0.87896477     0.17100
O1468       O  0.59435717  0.67230409  0.87357071    -0.59800
H1469       H  0.66922457  0.72449251  0.81900557     0.17100
O1470       O  0.71315543  0.68370255  0.82347654    -0.59900
H1471       H  0.71236856  0.67270087  0.80300334     0.44100
H1472       H  0.59645741  0.67865380  0.89582521     0.44100
C1473       C  0.86176611  0.81752838  0.92991297    -0.05000
C1474       C  0.83286077  0.81802751  0.94540151    -0.32400
C1475       C  0.81116246  0.84175190  0.94004744     0.36800
C1476       C  0.81797060  0.86540155  0.91850212    -0.05400
C1477       C  0.84790531  0.86639051  0.90510441    -0.32300
C1478       C  0.86974197  0.84273215  0.91069622     0.36700
H1479       H  0.82658162  0.79929723  0.96094790     0.17100
O1480       O  0.78331329  0.84146912  0.95586587    -0.59800
H1481       H  0.85390172  0.88465942  0.88892058     0.17100
O1482       O  0.89799701  0.84356600  0.89571447    -0.59900
H1483       H  0.89493454  0.83192837  0.87583159     0.44100
H1484       H  0.77057427  0.82539923  0.94517293     0.44100
C1485       C  0.86488882  0.70429100  0.92764221    -0.05000
C1486       C  0.87275161  0.68134695  0.90535686    -0.32400
C1487       C  0.85274969  0.65613667  0.89959023     0.36800
C1488       C  0.82443682  0.65362488  0.91637436    -0.05400
C1489       C  0.81816144  0.67521613  0.94043940    -0.32300
C1490       C  0.83790963  0.70041855  0.94594996     0.36700
H1491       H  0.89345223  0.68393406  0.89107976     0.17100
O1492       O  0.86013723  0.63541788  0.87610772    -0.63800
H1493       H  0.79708024  0.67341784  0.95426770     0.17100
O1494       O  0.83048071  0.72141503  0.96919715    -0.59900
H1495       H  0.81370673  0.73459649  0.96041829     0.44100
H1496       H  0.87387552  0.61977733  0.88598140     0.44100
C1497       C  0.46289527  0.75369095  0.84803511    -0.05000
C1498       C  0.47876563  0.78117569  0.84040556    -0.32400
C1499       C  0.51128576  0.78250302  0.83984134     0.36800
C1500       C  0.52926346  0.75613543  0.84757673    -0.05400
C1501       C  0.51354761  0.72848704  0.85507585    -0.32300
C1502       C  0.48082254  0.72704568  0.85522990     0.36700
H1503       H  0.46597811  0.80201639  0.83438034     0.17100
O1504       O  0.52508947  0.80982587  0.83123453    -0.59800
H1505       H  0.52663421  0.70779698  0.86102706     0.17100
O1506       O  0.46682950  0.69958837  0.86302998    -0.59900
H1507       H  0.46482513  0.68787570  0.84301879     0.44100
H1508       H  0.52756054  0.80827510  0.80822979     0.44100
C1509       C  0.36353870  0.81170183  0.83883960    -0.05000
C1510       C  0.33402384  0.81111715  0.82484848    -0.32400
C1511       C  0.31326379  0.83600439  0.82849407     0.36800
C1512       C  0.32156722  0.86205488  0.84694102    -0.05400
C1513       C  0.35231841  0.86408734  0.85807798    -0.32300
C1514       C  0.37328927  0.83915920  0.85410796     0.36700
H1515       H  0.32634082  0.79051733  0.81232576     0.17100
O1516       O  0.28418607  0.83358959  0.81556962    -0.59800
H1517       H  0.35956587  0.88416043  0.87166147     0.17100
O1518       O  0.40233196  0.84104817  0.86723469    -0.59900
H1519       H  0.39937343  0.83554717  0.88952816     0.44100
H1520       H  0.28600069  0.84332462  0.79470006     0.44100
C1521       C  0.03074850  0.76109235  0.92897965    -0.05000
C1522       C  0.01434728  0.78953880  0.92862504    -0.32400
C1523       C  0.98164576  0.79054252  0.92758089     0.36800
C1524       C  0.96423331  0.76268472  0.92719017    -0.05400
C1525       C  0.98066509  0.73431747  0.92689402    -0.32300
C1526       C  0.01328446  0.73329145  0.92777204     0.36700
H1527       H  0.02685275  0.81134375  0.92934659     0.17100
O1528       O  0.96716076  0.81901297  0.92745674    -0.59800
H1529       H  0.96824012  0.71246652  0.92623377     0.17100
O1530       O  0.02767229  0.70477317  0.92700134    -0.59900
H1531       H  0.02675662  0.69715245  0.94885255     0.44100
H1532       H  0.96478721  0.82424022  0.90498936     0.44100
C1533       C  0.13231314  0.81705053  0.93246560    -0.05000
C1534       C  0.16244624  0.81643231  0.94518237    -0.32400
C1535       C  0.18400911  0.83971864  0.93872457     0.36800
C1536       C  0.17598421  0.86427736  0.91862703    -0.05400
C1537       C  0.14498439  0.86648506  0.90813056    -0.32300
C1538       C  0.12312196  0.84325135  0.91512933     0.36700
H1539       H  0.16990320  0.79702957  0.95935284     0.17100
O1540       O  0.21343849  0.83712172  0.95081717    -0.59800
H1541       H  0.13793339  0.88562399  0.89343092     0.17100
O1542       O  0.09340024  0.84580215  0.90377160    -0.59900
H1543       H  0.09445734  0.83765258  0.88204185     0.44100
H1544       H  0.21166626  0.84468395  0.97278224     0.44100
C1545       C  0.31700862  0.65228428  0.87065814    -0.05000
C1546       C  0.34678984  0.65292430  0.88440424    -0.32400
C1547       C  0.36817242  0.67655751  0.87728958     0.36800
C1548       C  0.35985248  0.70023743  0.85629605    -0.05400
C1549       C  0.33040197  0.69907170  0.84209887    -0.32300
C1550       C  0.30920534  0.67556495  0.84899051     0.36700
H1551       H  0.35329358  0.63550947  0.90134424     0.17100
O1552       O  0.39616990  0.67739654  0.89258120    -0.59800
H1553       H  0.32338470  0.71696261  0.82585960     0.17100
O1554       O  0.28041852  0.67644691  0.83521871    -0.59900
H1555       H  0.28273080  0.66426223  0.81553814     0.44100
H1556       H  0.41013513  0.66352805  0.88022840     0.44100
C1557       C  0.13189943  0.70421422  0.93662034    -0.05000
C1558       C  0.16025314  0.70389274  0.95299723    -0.32400
C1559       C  0.18120138  0.67896520  0.94999840     0.36800
C1560       C  0.17418066  0.65360688  0.93006937    -0.05400
C1561       C  0.14512865  0.65325696  0.91488407    -0.32300
C1562       C  0.12415778  0.67825168  0.91794115     0.36700
H1563       H  0.16675247  0.72363999  0.96746509     0.17100
O1564       O  0.20925238  0.68067037  0.96515986    -0.59800
H1565       H  0.13911933  0.63412588  0.89941772     0.17100
O1566       O  0.09709217  0.67783077  0.90101754    -0.59900
H1567       H  0.10266628  0.68652909  0.88035048     0.44100
H1568       H  0.20493586  0.67376117  0.98680635     0.44100
loop_ 
_geom_bond_atom_site_label_1 
_geom_bond_atom_site_label_2 
_geom_bond_distance 
_geom_bond_site_symmetry_2 
_ccdc_geom_bond_type 
O1            C4   1.266       .  A
O1           Cd6   2.482       .  S
C2           O11   1.264       .  A
C2            O7   1.263       .  A
C2          C761   1.486       .  S
O3            C9   1.265       .  A
O3           Cd6   2.486       .  S
C4           O12   1.266       .  A
C4          C110   1.471       .  S
C5           O10   1.265       .  A
C5            O8   1.265       .  A
C5          C179   1.469       .  S
Cd6          O13   2.475       .  S
Cd6          O12   2.476       .  S
Cd6          O11   2.500       .  S
Cd6           O7   2.454       .  S
Cd6          O10   2.485       .  S
Cd6           O8   2.467       .  S
C9           O13   1.264       .  A
C9          C776   1.488       .  S
C14         C737   1.502       .  S
C14          N15   1.366       .  A
C14          N19   1.367       .  A
N15          C16   1.361       .  A
C16         C773   1.482       .  S
C16          N17   1.351       .  A
N17          C18   1.354       .  A
C18         C749   1.484       .  S
C18          N19   1.362       .  A
C20         C713   1.496       .  S
C20          N21   1.366       .  A
C20          N25   1.365       .  A
N21          C22   1.362       .  A
C22         C764   1.483       .  S
C22          N23   1.354       .  A
N23          C24   1.351       .  A
C24         C725   1.484       .  S
C24          N25   1.357       .  A
O26          C29   1.264       .  A
O26         Cd31   2.463       .  S
C27          O36   1.265       .  A
C27          O32   1.264       .  A
C27         C128   1.465       .  S
O28          C34   1.265       .  A
O28         Cd31   2.492       .  S
C29          O37   1.266       .  A
C29         C728   1.488       .  S
C30          O35   1.263       .  A
C30          O33   1.265       .  A
C30         C224   1.468       .  S
Cd31         O38   2.454       .  S
Cd31         O37   2.501       .  S
Cd31         O36   2.470       .  S
Cd31         O32   2.468       .  S
Cd31         O35   2.468       .  S
Cd31         O33   2.478       .  S
C34          O38   1.265       .  A
C34         C752   1.486       .  S
C39         C740   1.503       .  S
C39          N40   1.368       .  A
C39          N44   1.370       .  A
N40          C41   1.361       .  A
C41         C701   1.485       .  S
C41          N42   1.350       .  A
N42          C43   1.352       .  A
C43         C689   1.488       .  S
C43          N44   1.364       .  A
O45          C48   1.265       .  A
O45         Cd50   2.465       .  S
C46          O55   1.265       .  A
C46          O51   1.263       .  A
C46         C677   1.486       .  S
O47          C53   1.265       .  A
O47         Cd50   2.469       .  S
C48          O56   1.265       .  A
C48          C87   1.465       .  S
C49          O54   1.266       .  A
C49          O52   1.264       .  A
C49         C704   1.487       .  S
Cd50         O57   2.478       .  S
Cd50         O56   2.464       .  S
Cd50         O55   2.490       .  S
Cd50         O51   2.466       .  S
Cd50         O54   2.474       .  S
Cd50         O52   2.481       .  S
C53          O57   1.265       .  A
C53         C162   1.469       .  S
C58         C716   1.496       .  S
C58          N59   1.365       .  A
C58          N63   1.367       .  A
N59          C60   1.357       .  A
C60         C665   1.481       .  S
C60          N61   1.351       .  A
N61          C62   1.354       .  A
C62         C680   1.486       .  S
C62          N63   1.362       .  A
O64          C67   1.265       .  A
O64         Cd69   2.481       .  S
C65          O74   1.266       .  A
C65          O70   1.263       .  A
C65         C204   1.463       .  S
O66          C72   1.265       .  A
O66         Cd69   2.466       .  S
C67          O75   1.264       .  A
C67         C692   1.490       .  S
C68          O73   1.265       .  A
C68          O71   1.264       .  A
C68         C668   1.487       .  S
Cd69         O76   2.466       .  S
Cd69         O75   2.497       .  S
Cd69         O74   2.476       .  S
Cd69         O70   2.446       .  S
Cd69         O73   2.469       .  S
Cd69         O71   2.493       .  S
C72          O76   1.265       .  A
C72         C141   1.465       .  S
C77         C629   1.501       .  S
C77          N78   1.368       .  A
C77          N82   1.368   1_655  A
N78          C79   1.362       .  A
C79         C653   1.489       .  S
C79          N80   1.352       .  A
N80          C81   1.352   1_655  A
C81         C641   1.488       .  S
C81          N82   1.362       .  A
O83          C86   1.265       .  A
O83         Cd88   2.489       .  S
C84          O93   1.266       .  A
C84          O89   1.263       .  A
C84         C293   1.472       .  S
O85          C91   1.265       .  A
O85         Cd88   2.510       .  S
C86          O94   1.266       .  A
C86         C617   1.489       .  S
C87          O92   1.265       .  A
C87          O90   1.264       .  A
Cd88         O95   2.475       .  S
Cd88         O94   2.471       .  S
Cd88         O93   2.503       .  S
Cd88         O89   2.466       .  S
Cd88         O92   2.476       .  S
Cd88         O90   2.467       .  S
C91          O95   1.264       .  A
C91         C656   1.489       .  S
C96         C593   1.493       .  S
C96          N97   1.368   1_455  A
C96         N101   1.363       .  A
N97          C98   1.361       .  A
C98         C620   1.488       .  S
C98          N99   1.354   1_655  A
N99         C100   1.354       .  A
C100        C605   1.483       .  S
C100        N101   1.358       .  A
O102        C105   1.265       .  A
O102       Cd107   2.501       .  S
C103        O112   1.266       .  A
C103        O108   1.265       .  A
C103        C237   1.473       .  S
O104        C110   1.263       .  A
O104       Cd107   2.478       .  S
C105        O113   1.265       .  A
C105        C608   1.487       .  S
C106        O111   1.265       .  A
C106        O109   1.265       .  A
C106        C644   1.489       .  S
Cd107       O114   2.491       .  S
Cd107       O113   2.459       .  S
Cd107       O112   2.483       .  S
Cd107       O108   2.486       .  S
Cd107       O111   2.473       .  S
Cd107       O109   2.506       .  S
C110        O114   1.265       .  A
C115        C596   1.495       .  S
C115        N116   1.368   1_655  A
C115        N120   1.362       .  A
N116        C117   1.363       .  A
C117        C569   1.486       .  S
C117        N118   1.355   1_455  A
N118        C119   1.350       .  A
C119        C581   1.469       .  S
C119        N120   1.354       .  A
C121        C632   1.500       .  S
C121        N122   1.370   1_455  A
C121        N126   1.367       .  A
N122        C123   1.362       .  A
C123        C557   1.483       .  S
C123        N124   1.350   1_655  A
N124        C125   1.348       .  A
C125        C548   1.475       .  S
C125        N126   1.359       .  A
O127        C130   1.267       .  A
O127       Cd132   2.475       .  S
C128        O137   1.265       .  A
C128        O133   1.265       .  A
O129        C135   1.264       .  A
O129       Cd132   2.500   1_565  S
C130        O138   1.264       .  A
C130        C545   1.485       .  S
C131        O136   1.265       .  A
C131        O134   1.265       .  A
C131        C256   1.466       .  S
Cd132       O139   2.451   1_545  S
Cd132       O138   2.461       .  S
Cd132       O137   2.464   1_545  S
Cd132       O133   2.468   1_545  S
Cd132       O136   2.470       .  S
Cd132       O134   2.465       .  S
C135        O139   1.263       .  A
C135        C572   1.484       .  S
O140        C143   1.266       .  A
O140       Cd145   2.517       .  S
C141        O150   1.265       .  A
C141        O146   1.265   1_565  A
O142        C148   1.265       .  A
O142       Cd145   2.492       .  S
C143        O151   1.264       .  A
C143        C560   1.486       .  S
C144        O149   1.267       .  A
C144        O147   1.264       .  A
C144        C584   1.484       .  S
Cd145       O152   2.481       .  S
Cd145       O151   2.437       .  S
Cd145       O150   2.461   1_545  S
Cd145       O146   2.465       .  S
Cd145       O149   2.471   1_545  S
Cd145       O147   2.487   1_545  S
C148        O152   1.265       .  A
C148        C274   1.474       .  S
C153       C1293   1.495       .  S
C153        N154   1.364       .  A
C153        N158   1.365       .  A
N154        C155   1.360       .  A
C155        C536   1.478       .  S
C155        N156   1.353       .  A
N156        C157   1.356       .  A
C157        C521   1.486       .  S
C157        N158   1.362       .  A
O159        C162   1.266       .  A
O159       Cd948   2.486       .  S
C160        O169   1.266   1_556  A
C160        O949   1.266       .  A
C160        C500   1.490       .  S
O161        C167   1.264       .  A
O161       Cd164   2.479       .  S
C162        O954   1.264       .  A
C163        O168   1.264       .  A
C163        O950   1.264       .  A
C163        C524   1.482       .  S
Cd164       O171   2.477       .  S
Cd164       O170   2.481   1_554  S
Cd164       O169   2.495       .  S
Cd164       O168   2.468       .  S
Cd164       O943   2.495   1_554  S
Cd164       O949   2.470   1_554  S
Cd164       O950   2.464       .  S
O165        C944   1.264       .  A
O165       Cd948   2.469       .  S
O166        C947   1.263       .  A
O166       Cd948   2.432       .  S
C167        O171   1.265       .  A
C167        C296   1.469       .  S
O170        C946   1.263       .  A
C172       C1260   1.503       .  S
C172        N173   1.368       .  A
C172        N177   1.365       .  A
N173        C174   1.365       .  A
C174        C497   1.489       .  S
C174        N175   1.356       .  A
N175        C176   1.353       .  A
C176        C485   1.482       .  S
C176        N177   1.360       .  A
O178        C181   1.264       .  A
O178       Cd183   2.497       .  S
C179        O188   1.267       .  A
C179        O184   1.265       .  A
O180        C186   1.265       .  A
O180       Cd967   2.492       .  S
C181        O973   1.263       .  A
C181        C488   1.491       .  S
C182        O185   1.262       .  A
C182        O971   1.265       .  A
C182        C533   1.488       .  S
Cd183       O188   2.487       .  S
Cd183       O184   2.463       .  S
Cd183       O185   2.483       .  S
Cd183       O964   2.491       .  S
Cd183       O974   2.500       .  S
Cd183       O973   2.496       .  S
Cd183       O971   2.494       .  S
C186        O190   1.267       .  A
C186        C230   1.480       .  S
O187        C966   1.265       .  A
O187       Cd967   2.486       .  S
O189        C965   1.263       .  A
O189       Cd967   2.493   1_556  S
O190       Cd967   2.510       .  S
C191        C473   1.507       .  S
C191        N192   1.371       .  A
C191        N196   1.368       .  A
N192        C193   1.363       .  A
C193        C464   1.483       .  S
C193        N194   1.351       .  A
N194        C195   1.350       .  A
C195        C452   1.477       .  S
C195        N196   1.362       .  A
C197        C512   1.496       .  S
C197        N198   1.367       .  A
C197        N202   1.368       .  A
N198        C199   1.359       .  A
C199        C425   1.476       .  S
C199        N200   1.349       .  A
N200        C201   1.350       .  A
C201        C437   1.477       .  S
C201        N202   1.361       .  A
O203        C206   1.264   1_554  A
O203       Cd208   2.476       .  S
C204        O209   1.264   1_565  A
C204        O997   1.264       .  A
O205        C211   1.266       .  A
O205       Cd208   2.482       .  S
C206        O214   1.264       .  A
C206        C449   1.488       .  S
C207        O212   1.266       .  A
C207        O210   1.263       .  A
C207        C428   1.486       .  S
Cd208       O215   2.480       .  S
Cd208       O214   2.491   1_554  S
Cd208       O213   2.461   1_544  S
Cd208       O212   2.467   1_545  S
Cd208       O210   2.486   1_545  S
Cd208       O993   2.442   1_544  S
O209       Cd992   2.472       .  S
C211        O215   1.266       .  A
C211        C281   1.472       .  S
O213        C988   1.266       .  A
O216        C219   1.264       .  A
O216       Cd221   2.465       .  S
C217        O226   1.265   1_554  A
C217        O222   1.267       .  A
C217        C440   1.481       .  S
O218        C224   1.264   1_545  A
O218      Cd1005   2.473       .  S
C219        O227   1.265       .  A
C219        C251   1.464       .  S
C220        O223   1.264       .  A
C220       O1009   1.268   1_554  A
C220        C461   1.493   1_554  S
Cd221       O228   2.472   1_544  S
Cd221       O227   2.460       .  S
Cd221       O226   2.421   1_544  S
Cd221       O222   2.493   1_545  S
Cd221       O223   2.454       .  S
Cd221      O1002   2.479   1_554  S
Cd221      O1009   2.527   1_554  S
C224       O1012   1.265       .  A
O225       C1004   1.267       .  A
O225      Cd1005   2.510       .  S
O228       C1008   1.265       .  A
O229        C232   1.264       .  A
O229       Cd234   2.458       .  S
C230        O239   1.266       .  A
C230        O235   1.266       .  A
O231        C237   1.264       .  A
O231       Cd234   2.484       .  S
C232        O240   1.265       .  A
C232        C401   1.493       .  S
C233        O238   1.265       .  A
C233        O236   1.265       .  A
C233        C413   1.494       .  S
Cd234       O241   2.496       .  S
Cd234       O240   2.532       .  S
Cd234       O239   2.499       .  S
Cd234       O235   2.509       .  S
Cd234       O238   2.514       .  S
Cd234       O236   2.494       .  S
C237        O241   1.266       .  A
C242        C377   1.503       .  S
C242        N243   1.369       .  A
C242        N247   1.368       .  A
N243        C244   1.365       .  A
C244        C392   1.493       .  S
C244        N245   1.356       .  A
N245        C246   1.354       .  A
C246        C416   1.489       .  S
C246        N247   1.362       .  A
O248        C251   1.264       .  A
O248       Cd253   2.467       .  S
C249        O258   1.267       .  A
C249        O254   1.264       .  A
C249        C365   1.489       .  S
O250        C256   1.266       .  A
O250       Cd253   2.473       .  S
C251        O259   1.264       .  A
C252        O257   1.264       .  A
C252        O255   1.265       .  A
C252        C389   1.491       .  S
Cd253       O260   2.467       .  S
Cd253       O259   2.474       .  S
Cd253       O258   2.478       .  S
Cd253       O254   2.475       .  S
Cd253       O257   2.461       .  S
Cd253       O255   2.518       .  S
C256        O260   1.264       .  A
C261        C353   1.508       .  S
C261        N262   1.370       .  A
C261        N266   1.372       .  A
N262        C263   1.362       .  A
C263        C404   1.490       .  S
C263        N264   1.352       .  A
N264        C265   1.350       .  A
C265        C368   1.489       .  S
C265        N266   1.365       .  A
C267        C356   1.506       .  S
C267        N268   1.369       .  A
C267        N272   1.365       .  A
N268        C269   1.364       .  A
C269        C341   1.489       .  S
C269        N270   1.356       .  A
N270        C271   1.355       .  A
C271        C332   1.482       .  S
C271        N272   1.360       .  A
O273        C276   1.265       .  A
O273       Cd278   2.519       .  S
C274        O283   1.266       .  A
C274        O279   1.265       .  A
O275        C281   1.265       .  A
O275       Cd278   2.485       .  S
C276        O284   1.263       .  A
C276        C317   1.488       .  S
C277        O282   1.266       .  A
C277        O280   1.264       .  A
C277        C329   1.488       .  S
Cd278       O285   2.487       .  S
Cd278       O284   2.460       .  S
Cd278       O283   2.494       .  S
Cd278       O279   2.481       .  S
Cd278       O282   2.477       .  S
Cd278       O280   2.480       .  S
C281        O285   1.265       .  A
C286        C380   1.501       .  S
C286        N287   1.371       .  A
C286        N291   1.370       .  A
N287        C288   1.364       .  A
C288        C320   1.490       .  S
C288        N289   1.351       .  A
N289        C290   1.350       .  A
C290        C305   1.486       .  S
C290        N291   1.362       .  A
O292        C295   1.263       .  A
O292       Cd297   2.455       .  S
C293        O302   1.266       .  A
C293        O298   1.266       .  A
O294        C300   1.263       .  A
O294       Cd297   2.474       .  S
C295        O303   1.264       .  A
C295        C308   1.489       .  S
C296        O301   1.265       .  A
C296        O299   1.266       .  A
Cd297       O304   2.487       .  S
Cd297       O303   2.509       .  S
Cd297       O302   2.469       .  S
Cd297       O298   2.494       .  S
Cd297       O301   2.471       .  S
Cd297       O299   2.481       .  S
C300        O304   1.265       .  A
C300        C344   1.489       .  S
C305        C306   1.406       .  A
C305        C310   1.408       .  A
C306        C307   1.396       .  A
C306        H311   1.084       .  S
C307        C308   1.411       .  A
C307        O312   1.372       .  S
C308        C309   1.410       .  A
C309        C310   1.408       .  A
C309        H313   1.083       .  S
C310        O314   1.371       .  S
O312        H316   0.992       .  S
O314        H315   0.991       .  S
C317        C318   1.410       .  A
C317        C322   1.408       .  A
C318        C319   1.410       .  A
C318        H323   1.083       .  S
C319        C320   1.411       .  A
C319        O324   1.371       .  S
C320        C321   1.407       .  A
C321        C322   1.395       .  A
C321        H325   1.084       .  S
C322        O326   1.372       .  S
O324        H328   0.992       .  S
O326        H327   0.993       .  S
C329        C330   1.405       .  A
C329        C334   1.415       .  A
C330        C331   1.401       .  A
C330        H335   1.083       .  S
C331        C332   1.409       .  A
C331        O336   1.372       .  S
C332        C333   1.403       .  A
C333        C334   1.405       .  A
C333        H337   1.084       .  S
C334        O338   1.372       .  S
O336        H340   0.991       .  S
O338        H339   0.992       .  S
C341        C342   1.404       .  A
C341        C346   1.412       .  A
C342        C343   1.406       .  A
C342        H347   1.083       .  S
C343        C344   1.414       .  A
C343        O348   1.372       .  S
C344        C345   1.404       .  A
C345        C346   1.400       .  A
C345        H349   1.084       .  S
C346        O350   1.371       .  S
O348        H352   0.992       .  S
O350        H351   0.991       .  S
C353        C354   1.409       .  A
C353        C358   1.417       .  A
C354        C355   1.408   1_455  A
C354        H359   1.083       .  S
C355        C356   1.417       .  A
C355        O360   1.372       .  S
C356        C357   1.407       .  A
C357        C358   1.407   1_655  A
C357        H361   1.083       .  S
C358        O362   1.371       .  S
O360        H364   0.990       .  S
O362        H363   0.990       .  S
C365        C366   1.403       .  A
C365        C370   1.415       .  A
C366        C367   1.400       .  A
C366        H371   1.084       .  S
C367        C368   1.415       .  A
C367        O372   1.373       .  S
C368        C369   1.403       .  A
C369        C370   1.407       .  A
C369        H373   1.083       .  S
C370        O374   1.371       .  S
O372        H376   0.992       .  S
O374        H375   0.992       .  S
C377        C378   1.409       .  A
C377        C382   1.414       .  A
C378        C379   1.406       .  A
C378        H383   1.083       .  S
C379        C380   1.414       .  A
C379        O384   1.372       .  S
C380        C381   1.408       .  A
C381        C382   1.408       .  A
C381        H385   1.083       .  S
C382        O386   1.371       .  S
O384        H388   0.991       .  S
O386        H387   0.993       .  S
C389        C390   1.409       .  A
C389        C394   1.410       .  A
C390        C391   1.410       .  A
C390        H395   1.083       .  S
C391        C392   1.411       .  A
C391        O396   1.371       .  S
C392        C393   1.407       .  A
C393        C394   1.399       .  A
C393        H397   1.083       .  S
C394        O398   1.372       .  S
O396        H400   0.991       .  S
O398        H399   0.993       .  S
C401        C402   1.412       .  A
C401        C406   1.410       .  A
C402        C403   1.412       .  A
C402        H407   1.083       .  S
C403        C404   1.411       .  A
C403        O408   1.371       .  S
C404        C405   1.405       .  A
C405        C406   1.394       .  A
C405        H409   1.083       .  S
C406        O410   1.371       .  S
O408        H412   0.992       .  S
O410        H411   0.991       .  S
C413        C414   1.406       .  A
C413        C418   1.415       .  A
C414        C415   1.403       .  A
C414        H419   1.083       .  S
C415        C416   1.412       .  A
C415        O420   1.373       .  S
C416        C417   1.404       .  A
C417        C418   1.407       .  A
C417        H421   1.083       .  S
C418        O422   1.371       .  S
O420        H424   0.992       .  S
O422        H423   0.991       .  S
C425        C426   1.402       .  A
C425        C430   1.409       .  A
C426        C427   1.405       .  A
C426        H431   1.084       .  S
C427        C428   1.415       .  A
C427        O432   1.371       .  S
C428        C429   1.403       .  A
C429        C430   1.396       .  A
C429        H433   1.083       .  S
C430        O434   1.373       .  S
O432       H1220   0.991       .  S
O434        H435   0.992       .  S
H436       O1216   0.991       .  S
C437        C438   1.404       .  A
C437        C442   1.409       .  A
C438        C439   1.408       .  A
C438        H443   1.083       .  S
C439        C440   1.414       .  A
C439        O444   1.371       .  S
C440        C441   1.401       .  A
C441        C442   1.391       .  A
C441       H1229   1.084   1_554  S
C442       O1230   1.372   1_554  S
O444        H448   0.991       .  S
H445       C1225   1.083       .  S
O446       C1226   1.372       .  S
O446        H447   0.991       .  S
C449        C450   1.408       .  A
C449        C454   1.412       .  A
C450        C451   1.402       .  A
C450        H455   1.083   1_556  S
C451        C452   1.405       .  A
C451        O456   1.371   1_556  S
C452        C453   1.405       .  A
C453        C454   1.401       .  A
C453        H457   1.084       .  S
C454        O458   1.372       .  S
O456       H1244   0.992       .  S
O458        H459   0.993       .  S
H460       O1240   0.992       .  S
C461        C462   1.405   1_556  A
C461        C466   1.415       .  A
C462        C463   1.397       .  A
C462        H467   1.083       .  S
C463        C464   1.410   1_554  A
C463        O468   1.372       .  S
C464        C465   1.403       .  A
C465        C466   1.410       .  A
C465       H1253   1.083       .  S
C466       O1254   1.371       .  S
O468        H472   0.992       .  S
H469       C1249   1.083       .  S
O470       C1250   1.372       .  S
O470        H471   0.991       .  S
C473        C474   1.412       .  A
C473        C478   1.415       .  A
C474       C1259   1.410       .  A
C474        H479   1.083       .  S
C475       C1258   1.408       .  A
C475       C1260   1.415       .  A
C475        O480   1.371       .  S
C476        C956   1.505       .  S
C476        C477   1.409       .  A
C476       C1259   1.415       .  A
C477        C478   1.405       .  A
C477        H481   1.083       .  S
C478        O482   1.371       .  S
O480        H484   0.992       .  S
O482        H483   0.993   1_556  S
C485        C490   1.408       .  A
C485       C1270   1.404       .  A
C486        C487   1.402       .  A
C486       C1269   1.406       .  A
C486        H491   1.084       .  S
C487       C1272   1.413       .  A
C487        O492   1.372       .  S
C488        C489   1.408       .  A
C488       C1271   1.414       .  A
C489        C490   1.403       .  A
C489        H493   1.083       .  S
C490        O494   1.372       .  S
O492        H496   0.994       .  S
O494        H495   0.992       .  S
C497        C498   1.406       .  A
C497       C1286   1.410       .  A
C498        C499   1.400       .  A
C498        H503   1.084       .  S
C499       C1284   1.412       .  A
C499        O504   1.372       .  S
C500        C501   1.410       .  A
C500       C1283   1.410       .  A
C501        C502   1.408       .  A
C501        H505   1.083   1_556  S
C502       C1281   1.409       .  A
C502        O506   1.371   1_556  S
O504        H508   0.991       .  S
O506        H507   0.992   1_554  S
C509        C937   1.497       .  S
C509        C510   1.408       .  A
C509       C1298   1.414       .  A
C510        C511   1.403       .  A
C510        H515   1.083       .  S
C511        C512   1.413       .  A
C511        O516   1.371       .  S
C512        C513   1.408       .  A
C513       C1298   1.403       .  A
C513       H1301   1.083       .  S
C514       C1293   1.411       .  A
C514       C1297   1.404       .  A
C514        O518   1.372       .  S
O516        H520   0.993       .  S
H517       C1297   1.083       .  S
O518        H519   0.993       .  S
C521        C522   1.405       .  A
C521       C1310   1.412       .  A
C522        C523   1.396       .  A
C522        H527   1.084       .  S
C523       C1308   1.410       .  A
C523        O528   1.372       .  S
C524        C525   1.406       .  A
C524       C1307   1.410       .  A
C525        C526   1.401       .  A
C525        H529   1.083       .  S
C526       C1305   1.409       .  A
C526        O530   1.371       .  S
O528        H532   0.993       .  S
O530        H531   0.992       .  S
C533        C538   1.414       .  A
C533       C1318   1.406       .  A
C534        C535   1.400       .  A
C534       C1317   1.405       .  A
C534        H539   1.083       .  S
C535       C1320   1.408       .  A
C535        O540   1.372       .  S
C536        C537   1.401       .  A
C536       C1319   1.409       .  A
C537        C538   1.401       .  A
C537        H541   1.084       .  S
C538        O542   1.371       .  S
O540        H544   0.992       .  S
O542        H543   0.992       .  S
C545        C546   1.404       .  A
C545        C550   1.415       .  A
C546        C547   1.397       .  A
C546        H551   1.083       .  S
C547        C548   1.410       .  A
C547        O552   1.372       .  S
C548        C549   1.401       .  A
C549        C550   1.403       .  A
C549        H553   1.084       .  S
C550        O554   1.371       .  S
O552        H556   0.990       .  S
O554        H555   0.993       .  S
C557        C558   1.405       .  A
C557        C562   1.411       .  A
C558        C559   1.411       .  A
C558        H563   1.083       .  S
C559        C560   1.415       .  A
C559        O564   1.371       .  S
C560        C561   1.402       .  A
C561        C562   1.392       .  A
C561        H565   1.084       .  S
C562        O566   1.373       .  S
O564        H568   0.992       .  S
O566        H567   0.992       .  S
C569        C570   1.406       .  A
C569        C574   1.411       .  A
C570        C571   1.396       .  A
C570        H575   1.084       .  S
C571        C572   1.408       .  A
C571        O576   1.373       .  S
C572        C573   1.408       .  A
C573        C574   1.407       .  A
C573        H577   1.083       .  S
C574        O578   1.372       .  S
O576        H580   0.992       .  S
O578        H579   0.992       .  S
C581        C582   1.401       .  A
C581        C586   1.404       .  A
C582        C583   1.405       .  A
C582        H587   1.084       .  S
C583        C584   1.414       .  A
C583        O588   1.372       .  S
C584        C585   1.405       .  A
C585        C586   1.398       .  A
C585        H589   1.083       .  S
C586        O590   1.372       .  S
O588        H592   0.992       .  S
O590        H591   0.991       .  S
C593        C594   1.404   1_455  A
C593        C598   1.416       .  A
C594        C595   1.400       .  A
C594        H599   1.083       .  S
C595        C596   1.416       .  A
C595        O600   1.371       .  S
C596        C597   1.406   1_655  A
C597        C598   1.403       .  A
C597        H601   1.083       .  S
C598        O602   1.371       .  S
O600        H604   0.993       .  S
O602        H603   0.992       .  S
C605        C606   1.404       .  A
C605        C610   1.411       .  A
C606        C607   1.395       .  A
C606        H611   1.084       .  S
C607        C608   1.410       .  A
C607        O612   1.371       .  S
C608        C609   1.409       .  A
C609        C610   1.406       .  A
C609        H613   1.083       .  S
C610        O614   1.372       .  S
O612        H616   0.993       .  S
O614        H615   0.991       .  S
C617        C618   1.409       .  A
C617        C622   1.410       .  A
C618        C619   1.406       .  A
C618        H623   1.083       .  S
C619        C620   1.410       .  A
C619        O624   1.371       .  S
C620        C621   1.406       .  A
C621        C622   1.398       .  A
C621        H625   1.084       .  S
C622        O626   1.372       .  S
O624        H628   0.992       .  S
O626        H627   0.994       .  S
C629        C630   1.408   1_655  A
C629        C634   1.415       .  A
C630        C631   1.405       .  A
C630        H635   1.083       .  S
C631        C632   1.416       .  A
C631        O636   1.372       .  S
C632        C633   1.407   1_455  A
C633        C634   1.404       .  A
C633        H637   1.083       .  S
C634        O638   1.371       .  S
O636        H640   0.992       .  S
O638        H639   0.993       .  S
C641        C642   1.405       .  A
C641        C646   1.414       .  A
C642        C643   1.406       .  A
C642        H647   1.083       .  S
C643        C644   1.413       .  A
C643        O648   1.371       .  S
C644        C645   1.403       .  A
C645        C646   1.399       .  A
C645        H649   1.084       .  S
C646        O650   1.373       .  S
O648        H652   0.991       .  S
O650        H651   0.992       .  S
C653        C654   1.407       .  A
C653        C658   1.410       .  A
C654        C655   1.399       .  A
C654        H659   1.084       .  S
C655        C656   1.409       .  A
C655        O660   1.372       .  S
C656        C657   1.409       .  A
C657        C658   1.408       .  A
C657        H661   1.083       .  S
C658        O662   1.371       .  S
O660        H664   0.993       .  S
O662        H663   0.992       .  S
C665        C666   1.404       .  A
C665        C670   1.409       .  A
C666        C667   1.397       .  A
C666        H671   1.084       .  S
C667        C668   1.410       .  A
C667        O672   1.371       .  S
C668        C669   1.409       .  A
C669        C670   1.406       .  A
C669        H673   1.083       .  S
C670        O674   1.371       .  S
O672        H676   0.993       .  S
O674        H675   0.992       .  S
C677        C678   1.408       .  A
C677        C682   1.410       .  A
C678        C679   1.405       .  A
C678        H683   1.083       .  S
C679        C680   1.410       .  A
C679        O684   1.371       .  S
C680        C681   1.407       .  A
C681        C682   1.396       .  A
C681        H685   1.084       .  S
C682        O686   1.372       .  S
O684        H688   0.992       .  S
O686        H687   0.992       .  S
C689        C690   1.407       .  A
C689        C694   1.409       .  A
C690        C691   1.399       .  A
C690        H695   1.084       .  S
C691        C692   1.410       .  A
C691        O696   1.372       .  S
C692        C693   1.410       .  A
C693        C694   1.408       .  A
C693        H697   1.083       .  S
C694        O698   1.371       .  S
O696        H700   0.993       .  S
O698        H699   0.991       .  S
C701        C702   1.404       .  A
C701        C706   1.413       .  A
C702        C703   1.405       .  A
C702        H707   1.083       .  S
C703        C704   1.415       .  A
C703        O708   1.371       .  S
C704        C705   1.403       .  A
C705        C706   1.399       .  A
C705        H709   1.084       .  S
C706        O710   1.373       .  S
O708        H712   0.991       .  S
O710        H711   0.992       .  S
C713        C714   1.406       .  A
C713        C718   1.415       .  A
C714        C715   1.398       .  A
C714        H719   1.083       .  S
C715        C716   1.414       .  A
C715        O720   1.371       .  S
C716        C717   1.409       .  A
C717        C718   1.407       .  A
C717        H721   1.083       .  S
C718        O722   1.371       .  S
O720        H724   0.990       .  S
O722        H723   0.992       .  S
C725        C726   1.405       .  A
C725        C730   1.410       .  A
C726        C727   1.397       .  A
C726        H731   1.084       .  S
C727        C728   1.411       .  A
C727        O732   1.371       .  S
C728        C729   1.408       .  A
C729        C730   1.405       .  A
C729        H733   1.083       .  S
C730        O734   1.372       .  S
O732        H736   0.992       .  S
O734        H735   0.991       .  S
C737        C738   1.409       .  A
C737        C742   1.415       .  A
C738        C739   1.407   1_455  A
C738        H743   1.083       .  S
C739        C740   1.415       .  A
C739        O744   1.371       .  S
C740        C741   1.409       .  A
C741        C742   1.405   1_655  A
C741        H745   1.083       .  S
C742        O746   1.371       .  S
O744        H748   0.993       .  S
O746        H747   0.994       .  S
C749        C750   1.406       .  A
C749        C754   1.410       .  A
C750        C751   1.396       .  A
C750        H755   1.084       .  S
C751        C752   1.410       .  A
C751        O756   1.372       .  S
C752        C753   1.408       .  A
C753        C754   1.406       .  A
C753        H757   1.083       .  S
C754        O758   1.371       .  S
O756        H760   0.993       .  S
O758        H759   0.991       .  S
C761        C762   1.409       .  A
C761        C766   1.410       .  A
C762        C763   1.406       .  A
C762        H767   1.083       .  S
C763        C764   1.409       .  A
C763        O768   1.371       .  S
C764        C765   1.405       .  A
C765        C766   1.395       .  A
C765        H769   1.084       .  S
C766        O770   1.372       .  S
O768        H772   0.992       .  S
O770        H771   0.991       .  S
C773        C774   1.406       .  A
C773        C778   1.407       .  A
C774        C775   1.401       .  A
C774        H779   1.084       .  S
C775        C776   1.412       .  A
C775        O780   1.372       .  S
C776        C777   1.408       .  A
C777        C778   1.402       .  A
C777        H781   1.083       .  S
C778        O782   1.371       .  S
O780        H784   0.991       .  S
O782        H783   0.992       .  S
O785        C788   1.266       .  A
O785       Cd790   2.492       .  S
C786        O795   1.264       .  A
C786        O791   1.263       .  A
C786       C1545   1.489       .  S
O787        C793   1.265       .  A
O787       Cd790   2.492       .  S
C788        O796   1.266       .  A
C788        C894   1.475       .  S
C789        O794   1.265       .  A
C789        O792   1.265       .  A
C789        C963   1.473       .  S
Cd790       O797   2.483       .  S
Cd790       O796   2.484       .  S
Cd790       O795   2.505       .  S
Cd790       O791   2.463       .  S
Cd790       O794   2.482       .  S
Cd790       O792   2.486       .  S
C793        O797   1.264       .  A
C793       C1560   1.490       .  S
C798       C1521   1.502       .  S
C798        N799   1.367       .  A
C798        N803   1.368       .  A
N799        C800   1.361       .  A
C800       C1557   1.486       .  S
C800        N801   1.351       .  A
N801        C802   1.354       .  A
C802       C1533   1.488       .  S
C802        N803   1.362       .  A
C804       C1497   1.498       .  S
C804        N805   1.368       .  A
C804        N809   1.365       .  A
N805        C806   1.364       .  A
C806       C1548   1.487       .  S
C806        N807   1.354       .  A
N807        C808   1.352       .  A
C808       C1509   1.482       .  S
C808        N809   1.357       .  A
O810        C813   1.264       .  A
O810       Cd815   2.465       .  S
C811        O820   1.266       .  A
C811        O816   1.264       .  A
C811        C912   1.467       .  S
O812        C818   1.265       .  A
O812       Cd815   2.505       .  S
C813        O821   1.265       .  A
C813       C1512   1.489       .  S
C814        O819   1.264       .  A
C814        O817   1.265       .  A
C814       C1008   1.469       .  S
Cd815       O822   2.463       .  S
Cd815       O821   2.512       .  S
Cd815       O820   2.477       .  S
Cd815       O816   2.470       .  S
Cd815       O819   2.474       .  S
Cd815       O817   2.483       .  S
C818        O822   1.264       .  A
C818       C1536   1.489       .  S
C823       C1524   1.499       .  S
C823        N824   1.366       .  A
C823        N828   1.365       .  A
N824        C825   1.359       .  A
C825       C1485   1.481       .  S
C825        N826   1.354       .  A
N826        C827   1.355       .  A
C827       C1473   1.483       .  S
C827        N828   1.361       .  A
O829        C832   1.265       .  A
O829       Cd834   2.467       .  S
C830        O839   1.264       .  A
C830        O835   1.263       .  A
C830       C1461   1.484       .  S
O831        C837   1.265       .  A
O831       Cd834   2.476       .  S
C832        O840   1.265       .  A
C832        C871   1.463       .  S
C833        O838   1.266       .  A
C833        O836   1.264       .  A
C833       C1488   1.488       .  S
Cd834       O841   2.486       .  S
Cd834       O840   2.451       .  S
Cd834       O839   2.493       .  S
Cd834       O835   2.460       .  S
Cd834       O838   2.467       .  S
Cd834       O836   2.498       .  S
C837        O841   1.265       .  A
C837        C946   1.471       .  S
C842       C1500   1.495       .  S
C842        N843   1.367       .  A
C842        N847   1.367       .  A
N843        C844   1.359       .  A
C844       C1449   1.482       .  S
C844        N845   1.351       .  A
N845        C846   1.352       .  A
C846       C1464   1.483       .  S
C846        N847   1.361       .  A
O848        C851   1.264       .  A
O848       Cd853   2.464       .  S
C849        O858   1.265       .  A
C849        O854   1.264       .  A
C849        C988   1.459       .  S
O850        C856   1.265       .  A
O850       Cd853   2.481       .  S
C851        O859   1.264       .  A
C851       C1476   1.484       .  S
C852        O857   1.266       .  A
C852        O855   1.265       .  A
C852       C1452   1.488       .  S
Cd853       O860   2.459       .  S
Cd853       O859   2.488       .  S
Cd853       O858   2.446       .  S
Cd853       O854   2.452       .  S
Cd853       O857   2.461       .  S
Cd853       O855   2.491       .  S
C856        O860   1.263       .  A
C856        C925   1.465       .  S
C861       C1413   1.501       .  S
C861        N862   1.368       .  A
C861        N866   1.369   1_655  A
N862        C863   1.361       .  A
C863       C1437   1.485       .  S
C863        N864   1.351       .  A
N864        C865   1.351   1_655  A
C865       C1425   1.486       .  S
C865        N866   1.362       .  A
O867        C870   1.264       .  A
O867       Cd872   2.482       .  S
C868        O877   1.265       .  A
C868        O873   1.265       .  A
C868       C1077   1.469       .  S
O869        C875   1.264       .  A
O869       Cd872   2.498       .  S
C870        O878   1.266       .  A
C870       C1401   1.488       .  S
C871        O876   1.264       .  A
C871        O874   1.264       .  A
Cd872       O879   2.472       .  S
Cd872       O878   2.468       .  S
Cd872       O877   2.479       .  S
Cd872       O873   2.470       .  S
Cd872       O876   2.458       .  S
Cd872       O874   2.468       .  S
C875        O879   1.264       .  A
C875       C1440   1.486       .  S
C880       C1377   1.499       .  S
C880        N881   1.367       .  A
C880        N885   1.365   1_655  A
N881        C882   1.361       .  A
C882       C1404   1.481       .  S
C882        N883   1.352       .  A
N883        C884   1.352   1_655  A
C884       C1389   1.482       .  S
C884        N885   1.360       .  A
O886        C889   1.265       .  A
O886       Cd891   2.499       .  S
C887        O896   1.265       .  A
C887        O892   1.266       .  A
C887       C1021   1.472       .  S
O888        C894   1.264       .  A
O888       Cd891   2.485       .  S
C889        O897   1.264       .  A
C889       C1392   1.487       .  S
C890        O895   1.265       .  A
C890        O893   1.264       .  A
C890       C1428   1.487       .  S
Cd891       O898   2.498       .  S
Cd891       O897   2.475       .  S
Cd891       O896   2.472       .  S
Cd891       O892   2.491       .  S
Cd891       O895   2.465       .  S
Cd891       O893   2.494       .  S
C894        O898   1.265       .  A
C899       C1380   1.498       .  S
C899        N900   1.366   1_655  A
C899        N904   1.364       .  A
N900        C901   1.361       .  A
C901       C1353   1.478       .  S
C901        N902   1.353   1_455  A
N902        C903   1.353       .  A
C903       C1365   1.477       .  S
C903        N904   1.359       .  A
C905       C1416   1.500       .  S
C905        N906   1.368   1_455  A
C905        N910   1.365       .  A
N906        C907   1.362       .  A
C907       C1341   1.492       .  S
C907        N908   1.354   1_655  A
N908        C909   1.353       .  A
C909       C1332   1.481       .  S
C909        N910   1.361       .  A
O911        C914   1.263       .  A
O911       Cd916   2.469       .  S
C912        O921   1.267       .  A
C912        O917   1.265   1_565  A
O913        C919   1.263       .  A
O913       Cd916   2.475   1_565  S
C914        O922   1.263       .  A
C914       C1329   1.487       .  S
C915        O920   1.265       .  A
C915        O918   1.266       .  A
C915       C1040   1.469       .  S
Cd916       O923   2.489   1_545  S
Cd916       O922   2.500       .  S
Cd916       O921   2.470   1_545  S
Cd916       O917   2.463       .  S
Cd916       O920   2.470       .  S
Cd916       O918   2.480       .  S
C919        O923   1.265       .  A
C919       C1356   1.487       .  S
O924        C927   1.262       .  A
O924       Cd929   2.463       .  S
C925        O934   1.264       .  A
C925        O930   1.265   1_565  A
O926        C932   1.265       .  A
O926       Cd929   2.481       .  S
C927        O935   1.265       .  A
C927       C1344   1.492       .  S
C928        O933   1.267       .  A
C928        O931   1.264       .  A
C928       C1368   1.486       .  S
Cd929       O936   2.467       .  S
Cd929       O935   2.530       .  S
Cd929       O934   2.471   1_545  S
Cd929       O930   2.463       .  S
Cd929       O933   2.465   1_545  S
Cd929       O931   2.482   1_545  S
C932        O936   1.265       .  A
C932       C1058   1.469       .  S
C937        N938   1.365       .  A
C937        N942   1.365       .  A
N938        C939   1.359       .  A
C939       C1320   1.478       .  S
C939        N940   1.352       .  A
N940        C941   1.354       .  A
C941       C1305   1.482       .  S
C941        N942   1.361       .  A
O943        C946   1.265       .  A
C944        O953   1.266       .  A
C944       C1284   1.492       .  S
O945        C951   1.263       .  A
O945       Cd948   2.461       .  S
C947        O952   1.265       .  A
C947       C1308   1.483       .  S
Cd948       O955   2.499       .  S
Cd948       O954   2.467       .  S
Cd948       O953   2.509       .  S
Cd948       O952   2.495       .  S
C951        O955   1.267       .  A
C951       C1080   1.469       .  S
C956        N957   1.370       .  A
C956        N961   1.368       .  A
N957        C958   1.366       .  A
C958       C1281   1.488       .  S
C958        N959   1.354       .  A
N959        C960   1.352       .  A
C960       C1269   1.488       .  S
C960        N961   1.361       .  A
O962        C965   1.265   1_554  A
O962       Cd967   2.519       .  S
C963        O972   1.266   1_556  A
C963        O968   1.266       .  A
O964        C970   1.265       .  A
C965       C1272   1.495       .  S
C966        O969   1.263       .  A
C966       C1317   1.489       .  S
Cd967       O972   2.480       .  S
Cd967       O968   2.485   1_554  S
Cd967       O969   2.490       .  S
C970        O974   1.266       .  A
C970       C1014   1.478       .  S
C975       C1257   1.504       .  S
C975        N976   1.368       .  A
C975        N980   1.370       .  A
N976        C977   1.359       .  A
C977       C1248   1.476       .  S
C977        N978   1.350       .  A
N978        C979   1.351       .  A
C979       C1236   1.484       .  S
C979        N980   1.364       .  A
C981       C1296   1.500       .  S
C981        N982   1.367       .  A
C981        N986   1.369       .  A
N982        C983   1.359       .  A
C983       C1209   1.476       .  S
C983        N984   1.351       .  A
N984        C985   1.352       .  A
C985       C1221   1.476       .  S
C985        N986   1.363       .  A
O987        C990   1.266       .  A
O987       Cd992   2.504       .  S
C988        O993   1.264       .  A
O989        C995   1.265       .  A
O989       Cd992   2.487       .  S
C990        O998   1.264       .  A
C990       C1233   1.490       .  S
C991        O996   1.266       .  A
C991        O994   1.264       .  A
C991       C1212   1.486       .  S
Cd992       O999   2.473       .  S
Cd992       O998   2.459       .  S
Cd992       O997   2.457   1_545  S
Cd992       O996   2.470   1_545  S
Cd992       O994   2.486   1_545  S
C995        O999   1.264       .  A
C995       C1065   1.470       .  S
O1000      C1003   1.265       .  A
O1000     Cd1005   2.482       .  S
C1001      O1010   1.264       .  A
C1001      O1006   1.267       .  A
C1001      C1224   1.489       .  S
O1002      C1008   1.266   1_545  A
C1003      O1011   1.266       .  A
C1003      C1035   1.475       .  S
C1004      O1007   1.265       .  A
C1004      C1245   1.485       .  S
Cd1005     O1012   2.473   1_545  S
Cd1005     O1011   2.490       .  S
Cd1005     O1010   2.454   1_545  S
Cd1005     O1006   2.508   1_545  S
Cd1005     O1007   2.429       .  S
O1013      C1016   1.266       .  A
O1013     Cd1018   2.481       .  S
C1014      O1023   1.265       .  A
C1014      O1019   1.266       .  A
O1015      C1021   1.264       .  A
O1015     Cd1018   2.481       .  S
C1016      O1024   1.265       .  A
C1016      C1185   1.495       .  S
C1017      O1022   1.264       .  A
C1017      O1020   1.266       .  A
C1017      C1197   1.492       .  S
Cd1018     O1025   2.493       .  S
Cd1018     O1024   2.526       .  S
Cd1018     O1023   2.495       .  S
Cd1018     O1019   2.503       .  S
Cd1018     O1022   2.502       .  S
Cd1018     O1020   2.498       .  S
C1021      O1025   1.265       .  A
C1026      C1161   1.503       .  S
C1026      N1027   1.370       .  A
C1026      N1031   1.368       .  A
N1027      C1028   1.366       .  A
C1028      C1176   1.493       .  S
C1028      N1029   1.353       .  A
N1029      C1030   1.352       .  A
C1030      C1200   1.486       .  S
C1030      N1031   1.362       .  A
O1032      C1035   1.265       .  A
O1032     Cd1037   2.497       .  S
C1033      O1042   1.266       .  A
C1033      O1038   1.265       .  A
C1033      C1149   1.492       .  S
O1034      C1040   1.265       .  A
O1034     Cd1037   2.478       .  S
C1035      O1043   1.265       .  A
C1036      O1041   1.264       .  A
C1036      O1039   1.265       .  A
C1036      C1173   1.492       .  S
Cd1037     O1044   2.473       .  S
Cd1037     O1043   2.492       .  S
Cd1037     O1042   2.474       .  S
Cd1037     O1038   2.512       .  S
Cd1037     O1041   2.479       .  S
Cd1037     O1039   2.506       .  S
C1040      O1044   1.265       .  A
C1045      C1137   1.502       .  S
C1045      N1046   1.371       .  A
C1045      N1050   1.368       .  A
N1046      C1047   1.364       .  A
C1047      C1188   1.493       .  S
C1047      N1048   1.355       .  A
N1048      C1049   1.352       .  A
C1049      C1152   1.488       .  S
C1049      N1050   1.361       .  A
C1051      C1140   1.499       .  S
C1051      N1052   1.365       .  A
C1051      N1056   1.366       .  A
N1052      C1053   1.360       .  A
C1053      C1125   1.484       .  S
C1053      N1054   1.355       .  A
N1054      C1055   1.355       .  A
C1055      C1116   1.485       .  S
C1055      N1056   1.362       .  A
O1057      C1060   1.264       .  A
O1057     Cd1062   2.512       .  S
C1058      O1067   1.266       .  A
C1058      O1063   1.265       .  A
O1059      C1065   1.265       .  A
O1059     Cd1062   2.471       .  S
C1060      O1068   1.262       .  A
C1060      C1101   1.485       .  S
C1061      O1066   1.267       .  A
C1061      O1064   1.264       .  A
C1061      C1113   1.488       .  S
Cd1062     O1069   2.482       .  S
Cd1062     O1068   2.445       .  S
Cd1062     O1067   2.483       .  S
Cd1062     O1063   2.471       .  S
Cd1062     O1066   2.487       .  S
Cd1062     O1064   2.461       .  S
C1065      O1069   1.265       .  A
C1070      C1164   1.500       .  S
C1070      N1071   1.371       .  A
C1070      N1075   1.371       .  A
N1071      C1072   1.363       .  A
C1072      C1104   1.490       .  S
C1072      N1073   1.349       .  A
N1073      C1074   1.348       .  A
C1074      C1089   1.487       .  S
C1074      N1075   1.362       .  A
O1076      C1079   1.262       .  A
O1076     Cd1081   2.440       .  S
C1077      O1086   1.265       .  A
C1077      O1082   1.265       .  A
O1078      C1084   1.265       .  A
O1078     Cd1081   2.478       .  S
C1079      O1087   1.265       .  A
C1079      C1092   1.484       .  S
C1080      O1085   1.265       .  A
C1080      O1083   1.265       .  A
Cd1081     O1088   2.460       .  S
Cd1081     O1087   2.519       .  S
Cd1081     O1086   2.473       .  S
Cd1081     O1082   2.485       .  S
Cd1081     O1085   2.483       .  S
Cd1081     O1083   2.467       .  S
C1084      O1088   1.266       .  A
C1084      C1128   1.486       .  S
C1089      C1090   1.407       .  A
C1089      C1094   1.409       .  A
C1090      C1091   1.393       .  A
C1090      H1095   1.084       .  S
C1091      C1092   1.407       .  A
C1091      O1096   1.372       .  S
C1092      C1093   1.409       .  A
C1093      C1094   1.410       .  A
C1093      H1097   1.083       .  S
C1094      O1098   1.371       .  S
O1096      H1100   0.991       .  S
O1098      H1099   0.991       .  S
C1101      C1102   1.410       .  A
C1101      C1106   1.408       .  A
C1102      C1103   1.409       .  A
C1102      H1107   1.083       .  S
C1103      C1104   1.410       .  A
C1103      O1108   1.371       .  S
C1104      C1105   1.409       .  A
C1105      C1106   1.393       .  A
C1105      H1109   1.084       .  S
C1106      O1110   1.372       .  S
O1108      H1112   0.992       .  S
O1110      H1111   0.993       .  S
C1113      C1114   1.404       .  A
C1113      C1118   1.414       .  A
C1114      C1115   1.402       .  A
C1114      H1119   1.084       .  S
C1115      C1116   1.412       .  A
C1115      O1120   1.372       .  S
C1116      C1117   1.403       .  A
C1117      C1118   1.404       .  A
C1117      H1121   1.083       .  S
C1118      O1122   1.372       .  S
O1120      H1124   0.992       .  S
O1122      H1123   0.992       .  S
C1125      C1126   1.405       .  A
C1125      C1130   1.411       .  A
C1126      C1127   1.405       .  A
C1126      H1131   1.083       .  S
C1127      C1128   1.414       .  A
C1127      O1132   1.372       .  S
C1128      C1129   1.404       .  A
C1129      C1130   1.397       .  A
C1129      H1133   1.083       .  S
C1130      O1134   1.371       .  S
O1132      H1136   0.992       .  S
O1134      H1135   0.992       .  S
C1137      C1138   1.410       .  A
C1137      C1142   1.414       .  A
C1138      C1139   1.405   1_455  A
C1138      H1143   1.083       .  S
C1139      C1140   1.414       .  A
C1139      O1144   1.372       .  S
C1140      C1141   1.408       .  A
C1141      C1142   1.405   1_655  A
C1141      H1145   1.083       .  S
C1142      O1146   1.371       .  S
O1144      H1148   0.990       .  S
O1146      H1147   0.991       .  S
C1149      C1150   1.404       .  A
C1149      C1154   1.415       .  A
C1150      C1151   1.400       .  A
C1150      H1155   1.083       .  S
C1151      C1152   1.412       .  A
C1151      O1156   1.373       .  S
C1152      C1153   1.405       .  A
C1153      C1154   1.408       .  A
C1153      H1157   1.083       .  S
C1154      O1158   1.371       .  S
O1156      H1160   0.992       .  S
O1158      H1159   0.992       .  S
C1161      C1162   1.409       .  A
C1161      C1166   1.414       .  A
C1162      C1163   1.406       .  A
C1162      H1167   1.083       .  S
C1163      C1164   1.414       .  A
C1163      O1168   1.372       .  S
C1164      C1165   1.408       .  A
C1165      C1166   1.409       .  A
C1165      H1169   1.083       .  S
C1166      O1170   1.371       .  S
O1168      H1172   0.991       .  S
O1170      H1171   0.993       .  S
C1173      C1174   1.409       .  A
C1173      C1178   1.411       .  A
C1174      C1175   1.409       .  A
C1174      H1179   1.083       .  S
C1175      C1176   1.410       .  A
C1175      O1180   1.371       .  S
C1176      C1177   1.408       .  A
C1177      C1178   1.400       .  A
C1177      H1181   1.083       .  S
C1178      O1182   1.372       .  S
O1180      H1184   0.991       .  S
O1182      H1183   0.993       .  S
C1185      C1186   1.412       .  A
C1185      C1190   1.409       .  A
C1186      C1187   1.413       .  A
C1186      H1191   1.083       .  S
C1187      C1188   1.412       .  A
C1187      O1192   1.372       .  S
C1188      C1189   1.406       .  A
C1189      C1190   1.397       .  A
C1189      H1193   1.083       .  S
C1190      O1194   1.371       .  S
O1192      H1196   0.992       .  S
O1194      H1195   0.991       .  S
C1197      C1198   1.404       .  A
C1197      C1202   1.415       .  A
C1198      C1199   1.402       .  A
C1198      H1203   1.083       .  S
C1199      C1200   1.412       .  A
C1199      O1204   1.373       .  S
C1200      C1201   1.404       .  A
C1201      C1202   1.406       .  A
C1201      H1205   1.083       .  S
C1202      O1206   1.371       .  S
O1204      H1208   0.992       .  S
O1206      H1207   0.991       .  S
C1209      C1210   1.402       .  A
C1209      C1214   1.408       .  A
C1210      C1211   1.404       .  A
C1210      H1215   1.084       .  S
C1211      C1212   1.415       .  A
C1211      O1216   1.371       .  S
C1212      C1213   1.404       .  A
C1213      C1214   1.399       .  A
C1213      H1217   1.083       .  S
C1214      O1218   1.373       .  S
O1218      H1219   0.992       .  S
C1221      C1222   1.403       .  A
C1221      C1226   1.407       .  A
C1222      C1223   1.408       .  A
C1222      H1227   1.083       .  S
C1223      C1224   1.415       .  A
C1223      O1228   1.371       .  S
C1224      C1225   1.405       .  A
C1225      C1226   1.397       .  A
O1228      H1232   0.991       .  S
O1230      H1231   0.991       .  S
C1233      C1234   1.409       .  A
C1233      C1238   1.411       .  A
C1234      C1235   1.407       .  A
C1234      H1239   1.083       .  S
C1235      C1236   1.408       .  A
C1235      O1240   1.371       .  S
C1236      C1237   1.405       .  A
C1237      C1238   1.399       .  A
C1237      H1241   1.084       .  S
C1238      O1242   1.372       .  S
O1242      H1243   0.993       .  S
C1245      C1246   1.403       .  A
C1245      C1250   1.415       .  A
C1246      C1247   1.392       .  A
C1246      H1251   1.083       .  S
C1247      C1248   1.407       .  A
C1247      O1252   1.372       .  S
C1248      C1249   1.404       .  A
C1249      C1250   1.410       .  A
O1252      H1256   0.992       .  S
O1254      H1255   0.991       .  S
C1257      C1258   1.410       .  A
C1257      C1262   1.416       .  A
C1258      H1263   1.083       .  S
C1259      O1264   1.371       .  S
C1260      C1261   1.408       .  A
C1261      C1262   1.403       .  A
C1261      H1265   1.083       .  S
C1262      O1266   1.371       .  S
O1264      H1268   0.993       .  S
O1266      H1267   0.993       .  S
C1269      C1274   1.409       .  A
C1270      C1271   1.403       .  A
C1270      H1275   1.084       .  S
C1271      O1276   1.372       .  S
C1272      C1273   1.409       .  A
C1273      C1274   1.407       .  A
C1273      H1277   1.083   1_556  S
C1274      O1278   1.371   1_556  S
O1276      H1280   0.993       .  S
O1278      H1279   0.992       .  S
C1281      C1282   1.406       .  A
C1282      C1283   1.398       .  A
C1282      H1287   1.084       .  S
C1283      O1288   1.372       .  S
C1284      C1285   1.409       .  A
C1285      C1286   1.408       .  A
C1285      H1289   1.083       .  S
C1286      O1290   1.371       .  S
O1288      H1292   0.991       .  S
O1290      H1291   0.992       .  S
C1293      C1294   1.408       .  A
C1294      C1295   1.405       .  A
C1294      H1299   1.083       .  S
C1295      C1296   1.414       .  A
C1295      O1300   1.371       .  S
C1296      C1297   1.409       .  A
C1298      O1302   1.371       .  S
O1300      H1304   0.993       .  S
O1302      H1303   0.993       .  S
C1305      C1306   1.406       .  A
C1306      C1307   1.399       .  A
C1306      H1311   1.084       .  S
C1307      O1312   1.372       .  S
C1308      C1309   1.407       .  A
C1309      C1310   1.405       .  A
C1309      H1313   1.083       .  S
C1310      O1314   1.371       .  S
O1312      H1316   0.994       .  S
O1314      H1315   0.992       .  S
C1317      C1322   1.415       .  A
C1318      C1319   1.403       .  A
C1318      H1323   1.083       .  S
C1319      O1324   1.372       .  S
C1320      C1321   1.402       .  A
C1321      C1322   1.404       .  A
C1321      H1325   1.084       .  S
C1322      O1326   1.371       .  S
O1324      H1328   0.992       .  S
O1326      H1327   0.992   1_554  S
C1329      C1330   1.405       .  A
C1329      C1334   1.414       .  A
C1330      C1331   1.398       .  A
C1330      H1335   1.084       .  S
C1331      C1332   1.410       .  A
C1331      O1336   1.372       .  S
C1332      C1333   1.403       .  A
C1333      C1334   1.404       .  A
C1333      H1337   1.083       .  S
C1334      O1338   1.371       .  S
O1336      H1340   0.991       .  S
O1338      H1339   0.993       .  S
C1341      C1342   1.406       .  A
C1341      C1346   1.413       .  A
C1342      C1343   1.397       .  A
C1342      H1347   1.084       .  S
C1343      C1344   1.411       .  A
C1343      O1348   1.372       .  S
C1344      C1345   1.409       .  A
C1345      C1346   1.410       .  A
C1345      H1349   1.083       .  S
C1346      O1350   1.371       .  S
O1348      H1352   0.992       .  S
O1350      H1351   0.991       .  S
C1353      C1354   1.404       .  A
C1353      C1358   1.407       .  A
C1354      C1355   1.401       .  A
C1354      H1359   1.084       .  S
C1355      C1356   1.411       .  A
C1355      O1360   1.372       .  S
C1356      C1357   1.409       .  A
C1357      C1358   1.403       .  A
C1357      H1361   1.083       .  S
C1358      O1362   1.372       .  S
O1360      H1364   0.992       .  S
O1362      H1363   0.992       .  S
C1365      C1366   1.403       .  A
C1365      C1370   1.409       .  A
C1366      C1367   1.403       .  A
C1366      H1371   1.084       .  S
C1367      C1368   1.415       .  A
C1367      O1372   1.371       .  S
C1368      C1369   1.405       .  A
C1369      C1370   1.397       .  A
C1369      H1373   1.083       .  S
C1370      O1374   1.372       .  S
O1372      H1376   0.991       .  S
O1374      H1375   0.991       .  S
C1377      C1378   1.407       .  A
C1377      C1382   1.415   1_655  A
C1378      C1379   1.403       .  A
C1378      H1383   1.083       .  S
C1379      C1380   1.416       .  A
C1379      O1384   1.371       .  S
C1380      C1381   1.407   1_655  A
C1381      C1382   1.403       .  A
C1381      H1385   1.083       .  S
C1382      O1386   1.371       .  S
O1384      H1388   0.993       .  S
O1386      H1387   0.992       .  S
C1389      C1390   1.405       .  A
C1389      C1394   1.409       .  A
C1390      C1391   1.398       .  A
C1390      H1395   1.084       .  S
C1391      C1392   1.410       .  A
C1391      O1396   1.371       .  S
C1392      C1393   1.408       .  A
C1393      C1394   1.405       .  A
C1393      H1397   1.083       .  S
C1394      O1398   1.372       .  S
O1396      H1400   0.993       .  S
O1398      H1399   0.992       .  S
C1401      C1402   1.409       .  A
C1401      C1406   1.411       .  A
C1402      C1403   1.404       .  A
C1402      H1407   1.083       .  S
C1403      C1404   1.408       .  A
C1403      O1408   1.372       .  S
C1404      C1405   1.404       .  A
C1405      C1406   1.398       .  A
C1405      H1409   1.084       .  S
C1406      O1410   1.372       .  S
O1408      H1412   0.992       .  S
O1410      H1411   0.994       .  S
C1413      C1414   1.409   1_655  A
C1413      C1418   1.415       .  A
C1414      C1415   1.406       .  A
C1414      H1419   1.083       .  S
C1415      C1416   1.416       .  A
C1415      O1420   1.372       .  S
C1416      C1417   1.407   1_455  A
C1417      C1418   1.403       .  A
C1417      H1421   1.083       .  S
C1418      O1422   1.371       .  S
O1420      H1424   0.992       .  S
O1422      H1423   0.993       .  S
C1425      C1426   1.405       .  A
C1425      C1430   1.413       .  A
C1426      C1427   1.407       .  A
C1426      H1431   1.083       .  S
C1427      C1428   1.415       .  A
C1427      O1432   1.371       .  S
C1428      C1429   1.402       .  A
C1429      C1430   1.397       .  A
C1429      H1433   1.083       .  S
C1430      O1434   1.373       .  S
O1432      H1436   0.992       .  S
O1434      H1435   0.992       .  S
C1437      C1438   1.406       .  A
C1437      C1442   1.409       .  A
C1438      C1439   1.398       .  A
C1438      H1443   1.084       .  S
C1439      C1440   1.408       .  A
C1439      O1444   1.372       .  S
C1440      C1441   1.409       .  A
C1441      C1442   1.407       .  A
C1441      H1445   1.083       .  S
C1442      O1446   1.371       .  S
O1444      H1448   0.993       .  S
O1446      H1447   0.992       .  S
C1449      C1450   1.404       .  A
C1449      C1454   1.409       .  A
C1450      C1451   1.396       .  A
C1450      H1455   1.084       .  S
C1451      C1452   1.410       .  A
C1451      O1456   1.371       .  S
C1452      C1453   1.411       .  A
C1453      C1454   1.407       .  A
C1453      H1457   1.083       .  S
C1454      O1458   1.371       .  S
O1456      H1460   0.992       .  S
O1458      H1459   0.991       .  S
C1461      C1462   1.408       .  A
C1461      C1466   1.409       .  A
C1462      C1463   1.406       .  A
C1462      H1467   1.083       .  S
C1463      C1464   1.409       .  A
C1463      O1468   1.371       .  S
C1464      C1465   1.406       .  A
C1465      C1466   1.395       .  A
C1465      H1469   1.084       .  S
C1466      O1470   1.372       .  S
O1468      H1472   0.992       .  S
O1470      H1471   0.992       .  S
C1473      C1474   1.405       .  A
C1473      C1478   1.409       .  A
C1474      C1475   1.400       .  A
C1474      H1479   1.084       .  S
C1475      C1476   1.410       .  A
C1475      O1480   1.372       .  S
C1476      C1477   1.407       .  A
C1477      C1478   1.404       .  A
C1477      H1481   1.083       .  S
C1478      O1482   1.371       .  S
O1480      H1484   0.992       .  S
O1482      H1483   0.992       .  S
C1485      C1486   1.404       .  A
C1485      C1490   1.408       .  A
C1486      C1487   1.407       .  A
C1486      H1491   1.084       .  S
C1487      C1488   1.415       .  A
C1487      O1492   1.371       .  S
C1488      C1489   1.404       .  A
C1489      C1490   1.398       .  A
C1489      H1493   1.083       .  S
C1490      O1494   1.372       .  S
O1492      H1496   0.991       .  S
O1494      H1495   0.992       .  S
C1497      C1498   1.408       .  A
C1497      C1502   1.415       .  A
C1498      C1499   1.398       .  A
C1498      H1503   1.083       .  S
C1499      C1500   1.412       .  A
C1499      O1504   1.372       .  S
C1500      C1501   1.409       .  A
C1501      C1502   1.407       .  A
C1501      H1505   1.083       .  S
C1502      O1506   1.371       .  S
O1504      H1508   0.990       .  S
O1506      H1507   0.993       .  S
C1509      C1510   1.404       .  A
C1509      C1514   1.410       .  A
C1510      C1511   1.397       .  A
C1510      H1515   1.084       .  S
C1511      C1512   1.412       .  A
C1511      O1516   1.371       .  S
C1512      C1513   1.408       .  A
C1513      C1514   1.406       .  A
C1513      H1517   1.083       .  S
C1514      O1518   1.372       .  S
O1516      H1520   0.992       .  S
O1518      H1519   0.992       .  S
C1521      C1522   1.409       .  A
C1521      C1526   1.415       .  A
C1522      C1523   1.406   1_455  A
C1522      H1527   1.083       .  S
C1523      C1524   1.415       .  A
C1523      O1528   1.371       .  S
C1524      C1525   1.407       .  A
C1525      C1526   1.402   1_655  A
C1525      H1529   1.083       .  S
C1526      O1530   1.371       .  S
O1528      H1532   0.994       .  S
O1530      H1531   0.994       .  S
C1533      C1534   1.406       .  A
C1533      C1538   1.410       .  A
C1534      C1535   1.396       .  A
C1534      H1539   1.084       .  S
C1535      C1536   1.410       .  A
C1535      O1540   1.372       .  S
C1536      C1537   1.410       .  A
C1537      C1538   1.408       .  A
C1537      H1541   1.083       .  S
C1538      O1542   1.372       .  S
O1540      H1544   0.993       .  S
O1542      H1543   0.991       .  S
C1545      C1546   1.410       .  A
C1545      C1550   1.411       .  A
C1546      C1547   1.408       .  A
C1546      H1551   1.083       .  S
C1547      C1548   1.410       .  A
C1547      O1552   1.371       .  S
C1548      C1549   1.406       .  A
C1549      C1550   1.396       .  A
C1549      H1553   1.084       .  S
C1550      O1554   1.372       .  S
O1552      H1556   0.992       .  S
O1554      H1555   0.991       .  S
C1557      C1558   1.407       .  A
C1557      C1562   1.408       .  A
C1558      C1559   1.401       .  A
C1558      H1563   1.084       .  S
C1559      C1560   1.412       .  A
C1559      O1564   1.372       .  S
C1560      C1561   1.408       .  A
C1561      C1562   1.404       .  A
C1561      H1565   1.083       .  S
C1562      O1566   1.371       .  S
O1564      H1568   0.992       .  S
O1566      H1567   0.992       .  S
