geometry optimzed in LAMMPS
_audit_creation_date              2020-11-30 
_audit_creation_method            'lammps2cif' 
_symmetry_space_group_name_H-M    'P1' 
_symmetry_Int_Tables_number       1 
_symmetry_cell_setting            triclinic 
loop_ 
_symmetry_equiv_pos_as_xyz 
  x,y,z 
_cell_length_a                    108.49625452 
_cell_length_b                    108.37478390799085 
_cell_length_c                    108.38325185195718 
_cell_angle_alpha                 89.96932584352787 
_cell_angle_beta                  90.1446452789328 
_cell_angle_gamma                 89.96824190614197 
loop_ 
_atom_site_label 
_atom_site_type_symbol 
_atom_site_fract_x 
_atom_site_fract_y 
_atom_site_fract_z 
_atom_site_charge 
N1          N  0.66101597  0.82360233  0.83411081    -0.26800
N2          N  0.66622416  0.81354892  0.82959420    -0.34600
C3          C  0.66838694  0.81516133  0.81752189     0.01600
C4          C  0.66416439  0.82669177  0.81419603     0.07600
C5          C  0.65947691  0.83183361  0.82489559    -0.05500
H6          H  0.67274781  0.80842114  0.81159975     0.08300
H7          H  0.65579259  0.84104163  0.82602232     0.09500
Cu8        Cu  0.67001215  0.79792526  0.83981564     0.44200
Cu9        Cu  0.65785915  0.82580015  0.85289876     0.42000
Cu10       Cu  0.66310369  0.79828016  0.87213825     0.43900
N11         N  0.67115301  0.78244977  0.85086237    -0.34100
N12         N  0.66818521  0.78233794  0.86268151    -0.28400
C13         C  0.66962222  0.77078385  0.86706197    -0.04500
C14         C  0.67377646  0.76337169  0.85751336     0.07700
C15         C  0.67466108  0.77107643  0.84741749     0.01500
H16         H  0.66807679  0.76807237  0.87653970     0.09200
H17         H  0.67763869  0.76860945  0.83822230     0.08200
N18         N  0.65993433  0.81595847  0.87903340    -0.35600
N19         N  0.65811656  0.82586183  0.87210136    -0.27800
C20         C  0.65717957  0.83582577  0.87945692    -0.03000
C21         C  0.65842982  0.83203957  0.89157685     0.05600
C22         C  0.66013543  0.81938764  0.89097028     0.03700
H23         H  0.65590455  0.84517682  0.87619454     0.08800
H24         H  0.66171298  0.81315141  0.89860821     0.07600
N25         N  0.69775666  0.86304766  0.67322060    -0.26800
N26         N  0.70212473  0.86299203  0.68461851    -0.34600
C27         C  0.71447226  0.86368794  0.68431660     0.01600
C28         C  0.71812971  0.86395929  0.67214052     0.07600
C29         C  0.70733019  0.86346343  0.66530398    -0.05500
H30         H  0.72037015  0.86365874  0.69238262     0.08300
H31         H  0.70648384  0.86366903  0.65535917     0.09500
Cu32       Cu  0.69133931  0.86094035  0.70011709     0.44200
Cu33       Cu  0.67885141  0.86334075  0.66947277     0.42000
Cu34       Cu  0.65850413  0.86091399  0.69657624     0.43900
N35         N  0.67938336  0.85729344  0.71441695    -0.34100
N36         N  0.66725139  0.85752067  0.71333448    -0.28400
C37         C  0.66222480  0.85493910  0.72439914    -0.04500
C38         C  0.67170368  0.85283948  0.73271253     0.07700
C39         C  0.68243137  0.85436315  0.72606295     0.01500
H40         H  0.65243501  0.85437220  0.72618448     0.09200
H41         H  0.69178431  0.85350089  0.72944260     0.08200
N42         N  0.65242230  0.86443755  0.67869031    -0.35600
N43         N  0.65966767  0.86516805  0.66889944    -0.27800
C44         C  0.65265381  0.86746663  0.65887564    -0.03000
C45         C  0.64046252  0.86825621  0.66252815     0.05600
C46         C  0.64066920  0.86629082  0.67514444     0.03700
H47         H  0.65617845  0.86850275  0.64960405     0.08800
H48         H  0.63284741  0.86609118  0.68131114     0.07600
N49         N  0.86451603  0.63678927  0.82613025    -0.26800
N50         N  0.86045508  0.63819548  0.81469751    -0.34600
C51         C  0.84809409  0.63784395  0.81462868     0.01600
C52         C  0.84410335  0.63597767  0.82655896     0.07600
C53         C  0.85473235  0.63526690  0.83364136    -0.05500
H54         H  0.84243796  0.63898197  0.80647086     0.08300
H55         H  0.85529380  0.63419209  0.84355059     0.09500
Cu56       Cu  0.87149547  0.64114555  0.79953166     0.44200
Cu57       Cu  0.88318540  0.63808747  0.83082618     0.42000
Cu58       Cu  0.90327841  0.64716576  0.80504856     0.43900
N59         N  0.88342712  0.64624643  0.78567893    -0.34100
N60         N  0.89508312  0.64915404  0.78769736    -0.28400
C61         C  0.90009081  0.65304820  0.77700775    -0.04500
C62         C  0.89114046  0.65236204  0.76787577     0.07700
C63         C  0.88073703  0.64795513  0.77369205     0.01500
H64         H  0.90955287  0.65599401  0.77593343     0.09200
H65         H  0.87176839  0.64640671  0.76958809     0.08200
N66         N  0.90945135  0.64361305  0.82299310    -0.35600
N67         N  0.90228576  0.64039873  0.83233627    -0.27800
C68         C  0.90936452  0.63875441  0.84246805    -0.03000
C69         C  0.92154992  0.64098293  0.83933250     0.05600
C70         C  0.92121975  0.64402623  0.82693686     0.03700
H71         H  0.90589809  0.63603024  0.85141329     0.08800
H72         H  0.92900746  0.64632555  0.82116015     0.07600
N73         N  0.70371983  0.66208452  0.86525411    -0.26800
N74         N  0.71392247  0.66583197  0.85976958    -0.34600
C75         C  0.71289081  0.67785956  0.85694340     0.01600
C76         C  0.70154340  0.68194372  0.86098441     0.07600
C77         C  0.69597979  0.67175430  0.86629033    -0.05500
H78         H  0.71996945  0.68326246  0.85246028     0.08300
H79         H  0.68687005  0.67132459  0.87030313     0.09500
Cu80       Cu  0.72901027  0.65463369  0.85687146     0.44200
Cu81       Cu  0.70074305  0.64369754  0.87004101     0.42000
Cu82       Cu  0.72777253  0.62329055  0.86738976     0.43900
N83         N  0.74388818  0.64280920  0.85631747    -0.34100
N84         N  0.74383111  0.63144030  0.86073920    -0.28400
C85         C  0.75513180  0.62647330  0.85918304    -0.04500
C86         C  0.76246705  0.63515320  0.85334417     0.07700
C87         C  0.75504014  0.64532897  0.85164895     0.01500
H88         H  0.75765484  0.61713089  0.86164948     0.09200
H89         H  0.75755835  0.65397442  0.84734176     0.08200
N90         N  0.70990183  0.61728248  0.87108458    -0.35600
N91         N  0.70011931  0.62454855  0.87189299    -0.27800
C92         C  0.68997947  0.61748453  0.87322250    -0.03000
C93         C  0.69355106  0.60522194  0.87328911     0.05600
C94         C  0.70623539  0.60546153  0.87194543     0.03700
H95         H  0.68066199  0.62100742  0.87372722     0.08800
H96         H  0.71233606  0.59760815  0.87113827     0.07600
N97         N  0.86051613  0.83513806  0.64280161    -0.26800
N98         N  0.84958206  0.83178903  0.63853594    -0.34600
C99         C  0.85003548  0.81982198  0.63523724     0.01600
C100        C  0.86174902  0.81541009  0.63769492     0.07600
C101        C  0.86815597  0.82536617  0.64246103    -0.05500
H102        H  0.84222485  0.81455125  0.63194957     0.08300
H103        H  0.87758582  0.82544903  0.64572663     0.09500
Cu104      Cu  0.83402728  0.84299362  0.63921502     0.44200
Cu105      Cu  0.86454350  0.85266442  0.64939298     0.42000
Cu106      Cu  0.83834116  0.87247928  0.65424217     0.43900
N107        N  0.81954783  0.85438952  0.64450701    -0.34100
N108        N  0.82116526  0.86489860  0.65049370    -0.28400
C109        C  0.81010937  0.86936940  0.65386755    -0.04500
C110        C  0.80109636  0.86134751  0.64974576     0.07700
C111        C  0.80739128  0.85196460  0.64380818     0.01500
H112        H  0.80875422  0.87771271  0.65917283     0.09200
H113        H  0.80348907  0.84368398  0.63983091     0.08200
N114        N  0.85646363  0.87843415  0.65576830    -0.35600
N115        N  0.86610096  0.87115777  0.65409898    -0.27800
C116        C  0.87645344  0.87798213  0.65465677    -0.03000
C117        C  0.87313687  0.89015031  0.65667062     0.05600
C118        C  0.86041520  0.89008345  0.65737735     0.03700
H119        H  0.88563564  0.87443957  0.65306328     0.08800
H120        H  0.85443307  0.89800091  0.65844564     0.07600
N121        N  0.89099696  0.67301601  0.66402610    -0.26800
N122        N  0.89471332  0.68415790  0.66737997    -0.34600
C123        C  0.89706602  0.68414532  0.67957583     0.01600
C124        C  0.89450850  0.67253369  0.68414721     0.07600
C125        C  0.89068788  0.66570259  0.67405883    -0.05500
H126        H  0.89966311  0.69221143  0.68485313     0.08300
H127        H  0.88762266  0.65620444  0.67404855     0.09500
Cu128      Cu  0.89433467  0.69955376  0.65596044     0.44200
Cu129      Cu  0.88597126  0.66823454  0.64610819     0.42000
Cu130      Cu  0.88199356  0.69443625  0.62581130     0.43900
N131        N  0.88919391  0.71384285  0.64425099    -0.34100
N132        N  0.88405498  0.71190717  0.63335480    -0.28400
C133        C  0.88032550  0.72277490  0.62862490    -0.04500
C134        C  0.88337631  0.73199964  0.63691162     0.07700
C135        C  0.88904324  0.72602304  0.64667713     0.01500
H136        H  0.87558159  0.72384458  0.61989704     0.09200
H137        H  0.89224416  0.73014759  0.65519076     0.08200
N138        N  0.88109781  0.67622569  0.61997700    -0.35600
N139        N  0.88237880  0.66655495  0.62731527    -0.27800
C140        C  0.88161553  0.65618633  0.62047787    -0.03000
C141        C  0.87983559  0.65954787  0.60827050     0.05600
C142        C  0.87955136  0.67230822  0.60832394     0.03700
H143        H  0.88260104  0.64692273  0.62407581     0.08800
H144        H  0.87849248  0.67835771  0.60045215     0.07600
N145        N  0.86399807  0.16556418  0.63837487    -0.26800
N146        N  0.85275414  0.17015013  0.63730816    -0.34600
C147        C  0.85347694  0.18236585  0.63532987     0.01600
C148        C  0.86576288  0.18567264  0.63536517     0.07600
C149        C  0.87220437  0.17484048  0.63741772    -0.05500
H150        H  0.84561892  0.18846465  0.63449246     0.08300
H151        H  0.88209539  0.17377340  0.63812875     0.09500
Cu152      Cu  0.83693282  0.15985568  0.63980993     0.44200
Cu153      Cu  0.86731839  0.14678880  0.64061946     0.42000
Cu154      Cu  0.83974197  0.12691496  0.64143195     0.43900
N155        N  0.82225569  0.14827852  0.64344753    -0.34100
N156        N  0.82300930  0.13610530  0.64350051    -0.28400
C157        C  0.81187265  0.13141016  0.64639637    -0.04500
C158        C  0.80388091  0.14114919  0.64849396     0.07700
C159        C  0.81077882  0.15167635  0.64656414     0.01500
H160        H  0.80993962  0.12169223  0.64759748     0.09200
H161        H  0.80775107  0.16113538  0.64757757     0.08200
N162        N  0.85785343  0.12048440  0.64141108    -0.35600
N163        N  0.86777349  0.12759699  0.64123817    -0.27800
C164        C  0.87789686  0.12040124  0.64163828    -0.03000
C165        C  0.87418238  0.10821211  0.64215983     0.05600
C166        C  0.86142842  0.10861311  0.64199345     0.03700
H167        H  0.88726675  0.12381238  0.64172771     0.08800
H168        H  0.85516655  0.10086239  0.64241435     0.07600
N169        N  0.89214710  0.32642429  0.67130104    -0.26800
N170        N  0.89623189  0.31524057  0.67407768    -0.34600
C171        C  0.89884521  0.31471437  0.68619241     0.01600
C172        C  0.89612698  0.32601843  0.69136956     0.07600
C173        C  0.89187152  0.33322898  0.68170473    -0.05500
H174        H  0.90186632  0.30648493  0.69098254     0.08300
H175        H  0.88864413  0.34266174  0.68222637     0.09500
Cu176      Cu  0.89637643  0.30033951  0.66212523     0.44200
Cu177      Cu  0.88680283  0.33186881  0.65354788     0.42000
Cu178      Cu  0.88303693  0.30600883  0.63277225     0.43900
N179        N  0.89220820  0.28629726  0.64985899    -0.34100
N180        N  0.88684586  0.28844687  0.63912059    -0.28400
C181        C  0.88413958  0.27764190  0.63368143    -0.04500
C182        C  0.88803969  0.26823119  0.64135327     0.07700
C183        C  0.89314025  0.27402649  0.65153858     0.01500
H184        H  0.87942029  0.27671602  0.62492528     0.09200
H185        H  0.89671439  0.26968257  0.65979505     0.08200
N186        N  0.88119798  0.32420630  0.62741635    -0.35600
N187        N  0.88264091  0.33382047  0.63479026    -0.27800
C188        C  0.88180240  0.34421876  0.62796413    -0.03000
C189        C  0.87978643  0.34087145  0.61576046     0.05600
C190        C  0.87941653  0.32815489  0.61581557     0.03700
H191        H  0.88303554  0.35345712  0.63153278     0.08800
H192        H  0.87841033  0.32215421  0.60790058     0.07600
N193        N  0.87094340  0.35700992  0.83492897    -0.26800
N194        N  0.86710312  0.35967702  0.82364390    -0.34600
C195        C  0.85499274  0.36235502  0.82393993     0.01600
C196        C  0.85093109  0.36115358  0.83596052     0.07600
C197        C  0.86126080  0.35770108  0.84267710    -0.05500
H198        H  0.84941959  0.36432649  0.81588350     0.08300
H199        H  0.86166074  0.35564349  0.85243805     0.09500
Cu200      Cu  0.87793799  0.35760871  0.80805997     0.44200
Cu201      Cu  0.88920075  0.35214218  0.83899505     0.42000
Cu202      Cu  0.90823616  0.34448221  0.81240277     0.43900
N203        N  0.88891381  0.35142929  0.79371131    -0.34100
N204        N  0.89977100  0.34609762  0.79527135    -0.28400
C205        C  0.90393981  0.34219392  0.78424352    -0.04500
C206        C  0.89532205  0.34533848  0.77535026     0.07700
C207        C  0.88594120  0.35119237  0.78167351     0.01500
H208        H  0.91257645  0.33741187  0.78281994     0.09200
H209        H  0.87738615  0.35467256  0.77788149     0.08200
N210        N  0.91478569  0.34483952  0.83042543    -0.35600
N211        N  0.90794628  0.34759457  0.84013906    -0.27800
C212        C  0.91509101  0.34709588  0.85032881    -0.03000
C213        C  0.92696513  0.34390390  0.84683294     0.05600
C214        C  0.92640958  0.34257454  0.83416144     0.03700
H215        H  0.91189248  0.34902107  0.85957466     0.08800
H216        H  0.93392197  0.34015711  0.82807415     0.07600
N217        N  0.67443815  0.17082128  0.83954953    -0.26800
N218        N  0.68177219  0.18022161  0.83699034    -0.34600
C219        C  0.68470729  0.17990086  0.82495577     0.01600
C220        C  0.67883072  0.16990441  0.81964686     0.07600
C221        C  0.67237476  0.16436119  0.82913475    -0.05500
H222        H  0.69027872  0.18675385  0.82032425     0.08300
H223        H  0.66655573  0.15628108  0.82850899     0.09500
Cu224      Cu  0.68619444  0.19404760  0.84943477     0.44200
Cu225      Cu  0.66767669  0.16729773  0.85714119     0.42000
Cu226      Cu  0.67151986  0.19260951  0.87898810     0.43900
N227        N  0.68618684  0.20860019  0.86182728    -0.34100
N228        N  0.68017507  0.20842981  0.87241995    -0.28400
C229        C  0.68097478  0.21967366  0.87769114    -0.04500
C230        C  0.68794090  0.22717360  0.87005859     0.07700
C231        C  0.69112508  0.21983805  0.86014851     0.01500
H232        H  0.67685946  0.22216411  0.88642415     0.09200
H233        H  0.69630593  0.22259282  0.85208591     0.08200
N234        N  0.66535922  0.17505562  0.88377908    -0.35600
N235        N  0.66396083  0.16582358  0.87591144    -0.27800
C236        C  0.66098900  0.15553535  0.88223927    -0.03000
C237        C  0.66053886  0.15844896  0.89467480     0.05600
C238        C  0.66330941  0.17088620  0.89527827     0.03700
H239        H  0.65979953  0.14651609  0.87813554     0.08800
H240        H  0.66432814  0.17639124  0.90354378     0.07600
N241        N  0.70962388  0.33103716  0.87315928    -0.26800
N242        N  0.72115252  0.32718424  0.87224073    -0.34600
C243        C  0.72135150  0.31481494  0.87231918     0.01600
C244        C  0.70941646  0.31057812  0.87348861     0.07600
C245        C  0.70216683  0.32109996  0.87408382    -0.05500
H246        H  0.72960135  0.30929946  0.87130081     0.08300
H247        H  0.69221122  0.32149572  0.87447089     0.09500
Cu248      Cu  0.73629850  0.33850713  0.86985079     0.44200
Cu249      Cu  0.70491756  0.34964058  0.87148138     0.42000
Cu250      Cu  0.73064222  0.36982714  0.86186888     0.43900
N251        N  0.75026515  0.35054016  0.86501311    -0.34100
N252        N  0.74817965  0.36197966  0.86134048    -0.28400
C253        C  0.75894707  0.36709248  0.85784479    -0.04500
C254        C  0.76823360  0.35849039  0.85963066     0.07700
C255        C  0.76239202  0.34811977  0.86420677     0.01500
H256        H  0.75995707  0.37640001  0.85438270     0.09200
H257        H  0.76658020  0.33932702  0.86641984     0.08200
N258        N  0.71253067  0.37571970  0.86451202    -0.35600
N259        N  0.70329316  0.36852149  0.86796320    -0.27800
C260        C  0.69294654  0.37536716  0.86868671    -0.03000
C261        C  0.69581173  0.38743074  0.86559923     0.05600
C262        C  0.70829260  0.38730741  0.86304754     0.03700
H263        H  0.68401172  0.37180778  0.87129505     0.08800
H264        H  0.71389488  0.39507702  0.86026287     0.07600
N265        N  0.70196628  0.13897769  0.67689633    -0.26800
N266        N  0.70592361  0.14487721  0.68680765    -0.34600
C267        C  0.71823024  0.14602835  0.68628049     0.01600
C268        C  0.72228021  0.14041436  0.67561645     0.07600
C269        C  0.71175179  0.13600218  0.66985271    -0.05500
H270        H  0.72383935  0.15040391  0.69329024     0.08300
H271        H  0.71121436  0.13124244  0.66109704     0.09500
Cu272      Cu  0.69464571  0.14989555  0.70122761     0.44200
Cu273      Cu  0.68327420  0.13601904  0.67359897     0.42000
Cu274      Cu  0.66287909  0.14055250  0.70031634     0.43900
N275        N  0.68323048  0.15022818  0.71638789    -0.34100
N276        N  0.67170454  0.14628566  0.71640372    -0.28400
C277        C  0.66731325  0.14691563  0.72802292    -0.04500
C278        C  0.67657977  0.15152874  0.73555021     0.07700
C279        C  0.68647577  0.15353326  0.72786127     0.01500
H280        H  0.65809391  0.14428994  0.73074533     0.09200
H281        H  0.69549910  0.15691551  0.73045452     0.08200
N282        N  0.65675983  0.13707106  0.68241547    -0.35600
N283        N  0.66407416  0.13569647  0.67274750    -0.27800
C284        C  0.65708043  0.13451254  0.66252817    -0.03000
C285        C  0.64480375  0.13508199  0.66593860     0.05600
C286        C  0.64495383  0.13666347  0.67859421     0.03700
H287        H  0.66068825  0.13342719  0.65329634     0.08800
H288        H  0.63705215  0.13778107  0.68456188     0.07600
N289        N  0.19873571  0.64272779  0.82990033    -0.26800
N290        N  0.20224613  0.63842176  0.81902974    -0.34600
C291        C  0.21416126  0.63507720  0.81968192     0.01600
C292        C  0.21843076  0.63754767  0.83144186     0.07600
C293        C  0.20844717  0.64243854  0.83767645    -0.05500
H294        H  0.21947024  0.63163423  0.81197883     0.08300
H295        H  0.20826038  0.64559491  0.84714302     0.09500
Cu296      Cu  0.19146529  0.63856929  0.80316142     0.44200
Cu297      Cu  0.18084108  0.64859155  0.83376400     0.42000
Cu298      Cu  0.16149024  0.65169666  0.80674681     0.43900
N299        N  0.17995493  0.64236312  0.78829186    -0.34100
N300        N  0.16911498  0.64775027  0.78966220    -0.28400
C301        C  0.16422742  0.64998126  0.77847034    -0.04500
C302        C  0.17231282  0.64568125  0.76962140     0.07700
C303        C  0.18220172  0.64088388  0.77615777     0.01500
H304        H  0.15547394  0.65450740  0.77689125     0.09200
H305        H  0.19060674  0.63707359  0.77239021     0.08200
N306        N  0.15493488  0.65293772  0.82467501    -0.35600
N307        N  0.16192569  0.65191020  0.83463584    -0.27800
C308        C  0.15463802  0.65213159  0.84469956    -0.03000
C309        C  0.14249926  0.65323889  0.84084724     0.05600
C310        C  0.14306566  0.65376434  0.82810312     0.03700
H311        H  0.15787733  0.65096729  0.85407663     0.08800
H312        H  0.13539218  0.65424743  0.82173175     0.07600
N313        N  0.36074032  0.66321036  0.85692969    -0.26800
N314        N  0.34991621  0.66651220  0.86146060    -0.34600
C315        C  0.35003580  0.67871055  0.86384901     0.01600
C316        C  0.36139606  0.68337557  0.86047113     0.07600
C317        C  0.36794831  0.67329850  0.85611285    -0.05500
H318        H  0.34221191  0.68390531  0.86720023     0.08300
H319        H  0.37723441  0.67331672  0.85250082     0.09500
Cu320      Cu  0.33481935  0.65476863  0.86227618     0.44200
Cu321      Cu  0.36504395  0.64511663  0.85176270     0.42000
Cu322      Cu  0.33863236  0.62481773  0.84830132     0.43900
N323        N  0.32021231  0.64314839  0.85801887    -0.34100
N324        N  0.32155140  0.63240898  0.85239467    -0.28400
C325        C  0.31034039  0.62793049  0.84949860    -0.04500
C326        C  0.30154545  0.63623220  0.85354378     0.07700
C327        C  0.30812561  0.64574572  0.85893906     0.01500
H328        H  0.30873260  0.61945220  0.84448045     0.09200
H329        H  0.30445559  0.65426071  0.86262185     0.08200
N330        N  0.35676992  0.61906335  0.84625354    -0.35600
N331        N  0.36647999  0.62631447  0.84765125    -0.27800
C332        C  0.37678606  0.61941084  0.84665080    -0.03000
C333        C  0.37336428  0.60727169  0.84452783     0.05600
C334        C  0.36061082  0.60743679  0.84429430     0.03700
H335        H  0.38606278  0.62289819  0.84777120     0.08800
H336        H  0.35451643  0.59961000  0.84324737     0.07600
N337        N  0.39444205  0.82644364  0.83428146    -0.26800
N338        N  0.39397891  0.81490810  0.83031440    -0.34600
C339        C  0.39403855  0.81484257  0.81793382     0.01600
C340        C  0.39473263  0.82687755  0.81380551     0.07600
C341        C  0.39505224  0.83403292  0.82440730    -0.05500
H342        H  0.39358897  0.80658477  0.81234742     0.08300
H343        H  0.39531694  0.84399945  0.82490015     0.09500
Cu344      Cu  0.39288491  0.79943712  0.84148702     0.44200
Cu345      Cu  0.39321873  0.83100856  0.85299868     0.42000
Cu346      Cu  0.38755634  0.80415969  0.87336270     0.43900
N347        N  0.38953534  0.78494415  0.85347488    -0.34100
N348        N  0.38688602  0.78663285  0.86524491    -0.28400
C349        C  0.38374013  0.77566207  0.87023237    -0.04500
C350        C  0.38462318  0.76666757  0.86115154     0.07700
C351        C  0.38840095  0.77289938  0.85069298     0.01500
H352        H  0.38088703  0.77435366  0.87969960     0.09200
H353        H  0.38963961  0.76905718  0.84156697     0.08200
N354        N  0.38921061  0.82245876  0.87940123    -0.35600
N355        N  0.39106084  0.83213838  0.87215927    -0.27800
C356        C  0.39168150  0.84238691  0.87921472    -0.03000
C357        C  0.39027897  0.83898710  0.89146478     0.05600
C358        C  0.38875252  0.82631284  0.89120047     0.03700
H359        H  0.39333125  0.85158329  0.87570262     0.08800
H360        H  0.38749087  0.82028739  0.89905917     0.07600
N361        N  0.20599930  0.82957225  0.65026964    -0.26800
N362        N  0.21695387  0.82554766  0.64676552    -0.34600
C363        C  0.21637165  0.81336972  0.64462700     0.01600
C364        C  0.20452431  0.80940511  0.64701959     0.07600
C365        C  0.19816653  0.81989475  0.65065743    -0.05500
H366        H  0.22410025  0.80778063  0.64171571     0.08300
H367        H  0.18852681  0.82049543  0.65311475     0.09500
Cu368      Cu  0.23255885  0.83638162  0.64548924     0.44200
Cu369      Cu  0.20247088  0.84829875  0.65338866     0.42000
Cu370      Cu  0.22940594  0.86875017  0.64873607     0.43900
N371        N  0.24750929  0.84815102  0.64617557    -0.34100
N372        N  0.24644516  0.86025783  0.64703366    -0.28400
C373        C  0.25775674  0.86522991  0.64830093    -0.04500
C374        C  0.26627239  0.85572097  0.64846510     0.07700
C375        C  0.25945593  0.84503791  0.64707260     0.01500
H376        H  0.25955013  0.87491092  0.64994115     0.09200
H377        H  0.26285179  0.83565172  0.64728831     0.08200
N378        N  0.21158357  0.87481333  0.65214431    -0.35600
N379        N  0.20188296  0.86760941  0.65389480    -0.27800
C380        C  0.19188623  0.87479546  0.65565402    -0.03000
C381        C  0.19549670  0.88703977  0.65503746     0.05600
C382        C  0.20803364  0.88667762  0.65282401     0.03700
H383        H  0.18265496  0.87135894  0.65718155     0.08800
H384        H  0.21415387  0.89446194  0.65163928     0.07600
N385        N  0.36873278  0.86567056  0.67360852    -0.26800
N386        N  0.36571765  0.85814727  0.68271622    -0.34600
C387        C  0.35367133  0.85544471  0.68191032     0.01600
C388        C  0.34881784  0.86170897  0.67193966     0.07600
C389        C  0.35858152  0.86815053  0.66686365    -0.05500
H390        H  0.34876227  0.84953066  0.68826692     0.08300
H391        H  0.35840532  0.87390441  0.65870446     0.09500
Cu392      Cu  0.37770950  0.85279196  0.69655609     0.44200
Cu393      Cu  0.38677562  0.87116621  0.67052476     0.42000
Cu394      Cu  0.40783834  0.86589381  0.69665207     0.43900
N395        N  0.38922544  0.85226028  0.71175337    -0.34100
N396        N  0.40002306  0.85787754  0.71224419    -0.28400
C397        C  0.40451738  0.85696407  0.72382955    -0.04500
C398        C  0.39615425  0.85029804  0.73081355     0.07700
C399        C  0.38664456  0.84742427  0.72285298     0.01500
H400        H  0.41325638  0.86069524  0.72687565     0.09200
H401        H  0.37824321  0.84253606  0.72507333     0.08200
N402        N  0.41336022  0.87083905  0.67892852    -0.35600
N403        N  0.40582592  0.87255530  0.66945307    -0.27800
C404        C  0.41255886  0.87448252  0.65920370    -0.03000
C405        C  0.42488822  0.87405262  0.66240758     0.05600
C406        C  0.42505226  0.87175143  0.67496540     0.03700
H407        H  0.40875240  0.87585432  0.65006939     0.08800
H408        H  0.43307849  0.87037507  0.68074400     0.07600
N409        N  0.17296347  0.66521630  0.66577839    -0.26800
N410        N  0.16908410  0.67613580  0.66959540    -0.34600
C411        C  0.16601850  0.67540981  0.68155803     0.01600
C412        C  0.16822072  0.66352508  0.68560684     0.07600
C413        C  0.17265359  0.65727435  0.67537729    -0.05500
H414        H  0.16314634  0.68319657  0.68709350     0.08300
H415        H  0.17567781  0.64776791  0.67500603     0.09500
Cu416      Cu  0.17012716  0.69225033  0.65938904     0.44200
Cu417      Cu  0.17880137  0.66212590  0.64769551     0.42000
Cu418      Cu  0.18369613  0.69011858  0.62942779     0.43900
N419        N  0.17549212  0.70761974  0.64939854    -0.34100
N420        N  0.18097612  0.70681377  0.63855306    -0.28400
C421        C  0.18450594  0.71817277  0.63500015    -0.04500
C422        C  0.18097763  0.72651783  0.64398936     0.07700
C423        C  0.17526449  0.71951394  0.65298757     0.01500
H424        H  0.18945764  0.72018660  0.62658444     0.09200
H425        H  0.17172445  0.72272353  0.66174086     0.08200
N426        N  0.18464253  0.67229907  0.62226018    -0.35600
N427        N  0.18285394  0.66217817  0.62886493    -0.27800
C428        C  0.18332995  0.65232100  0.62132017    -0.03000
C429        C  0.18551712  0.65639616  0.60942262     0.05600
C430        C  0.18633910  0.66911442  0.61036708     0.03700
H431        H  0.18185271  0.64288764  0.62423357     0.08800
H432        H  0.18766528  0.67562111  0.60291496     0.07600
N433        N  0.66152044  0.82868854  0.16761788    -0.26800
N434        N  0.66860278  0.81938578  0.17110846    -0.34600
C435        C  0.67123077  0.82047900  0.18315343     0.01600
C436        C  0.66544428  0.83088310  0.18760706     0.07600
C437        C  0.65931163  0.83591791  0.17752680    -0.05500
H438        H  0.67677057  0.81399432  0.18835863     0.08300
H439        H  0.65382893  0.84425774  0.17736676     0.09500
Cu440      Cu  0.67369101  0.80488812  0.15988620     0.44200
Cu441      Cu  0.65592731  0.83073476  0.14926079     0.42000
Cu442      Cu  0.66176046  0.80309893  0.12962436     0.43900
N443        N  0.67540004  0.78930012  0.14911158    -0.34100
N444        N  0.67049031  0.78827798  0.13800374    -0.28400
C445        C  0.67226019  0.77668401  0.13386819    -0.04500
C446        C  0.67867920  0.77020964  0.14283835     0.07700
C447        C  0.68052345  0.77850140  0.15234317     0.01500
H448        H  0.66908250  0.77323284  0.12505260     0.09200
H449        H  0.68487325  0.77671705  0.16115808     0.08200
N450        N  0.65549030  0.82003796  0.12326879    -0.35600
N451        N  0.65357081  0.82997930  0.13011701    -0.27800
C452        C  0.65081843  0.83951094  0.12260738    -0.03000
C453        C  0.65099901  0.83535154  0.11054035     0.05600
C454        C  0.65394116  0.82297607  0.11132152     0.03700
H455        H  0.64925808  0.84887831  0.12567900     0.08800
H456        H  0.65546446  0.81666939  0.10374366     0.07600
N457        N  0.69696582  0.86456430  0.33067730    -0.26800
N458        N  0.70100917  0.85897441  0.32063060    -0.34600
C459        C  0.71309653  0.85657627  0.32194634     0.01600
C460        C  0.71689955  0.86107611  0.33325000     0.07600
C461        C  0.70646244  0.86611924  0.33856469    -0.05500
H462        H  0.71878951  0.85224824  0.31499997     0.08300
H463        H  0.70578628  0.87046351  0.34752311     0.09500
Cu464      Cu  0.69021641  0.85590469  0.30509815     0.44200
Cu465      Cu  0.67856772  0.86924808  0.33307607     0.42000
Cu466      Cu  0.65843377  0.86529686  0.30596429     0.43900
N467        N  0.67866666  0.85543407  0.28980775    -0.34100
N468        N  0.66707268  0.85919411  0.28990084    -0.28400
C469        C  0.66232767  0.85794469  0.27844495    -0.04500
C470        C  0.67136810  0.85307237  0.27085493     0.07700
C471        C  0.68158444  0.85161625  0.27838623     0.01500
H472        H  0.65294710  0.86019427  0.27589095     0.09200
H473        H  0.69053198  0.84809220  0.27576554     0.08200
N474        N  0.65225272  0.86985961  0.32361241    -0.35600
N475        N  0.65952613  0.87125006  0.33334219    -0.27800
C476        C  0.65255494  0.87357930  0.34332668    -0.03000
C477        C  0.64031515  0.87368265  0.33973282     0.05600
C478        C  0.64046367  0.87131874  0.32718923     0.03700
H479        H  0.65615425  0.87491515  0.35254587     0.08800
H480        H  0.63256114  0.87048071  0.32113925     0.07600
N481        N  0.85986392  0.83363186  0.35943080    -0.26800
N482        N  0.84871575  0.82973157  0.36236890    -0.34600
C483        C  0.84900262  0.81747096  0.36415642     0.01600
C484        C  0.86088259  0.81338932  0.36207855     0.07600
C485        C  0.86754468  0.82385638  0.35904356    -0.05500
H486        H  0.84104712  0.81189772  0.36640032     0.08300
H487        H  0.87724567  0.82434231  0.35680970     0.09500
Cu488      Cu  0.83337517  0.84100931  0.36255253     0.44200
Cu489      Cu  0.86365848  0.85222371  0.35647830     0.42000
Cu490      Cu  0.83672576  0.87341166  0.35697598     0.43900
N491        N  0.81859566  0.85274843  0.35997043    -0.34100
N492        N  0.81957027  0.86477389  0.35818935    -0.28400
C493        C  0.80820092  0.86946023  0.35618621    -0.04500
C494        C  0.79980472  0.85982101  0.35651762     0.07700
C495        C  0.80673728  0.84940628  0.35890852     0.01500
H496        H  0.80629432  0.87898801  0.35388559     0.09200
H497        H  0.80345689  0.83999499  0.35944732     0.08200
N498        N  0.85509984  0.87893909  0.35534123    -0.35600
N499        N  0.86469488  0.87136852  0.35518311    -0.27800
C500        C  0.87510049  0.87807249  0.35429687    -0.03000
C501        C  0.87192623  0.89042479  0.35382308     0.05600
C502        C  0.85919823  0.89063113  0.35448689     0.03700
H503        H  0.88429384  0.87421088  0.35410348     0.08800
H504        H  0.85333416  0.89871031  0.35449546     0.07600
N505        N  0.86438713  0.63710555  0.17243197    -0.26800
N506        N  0.86089321  0.63835178  0.18405667    -0.34600
C507        C  0.84855581  0.63861401  0.18457180     0.01600
C508        C  0.84396254  0.63736573  0.17276119     0.07600
C509        C  0.85422697  0.63633717  0.16525027    -0.05500
H510        H  0.84332146  0.63981559  0.19296954     0.08300
H511        H  0.85431490  0.63562614  0.15529486     0.09500
Cu512      Cu  0.87246738  0.64038919  0.19910165     0.44200
Cu513      Cu  0.88283752  0.63772954  0.16702813     0.42000
Cu514      Cu  0.90367322  0.64514209  0.19314031     0.43900
N515        N  0.88490420  0.64407687  0.21310094    -0.34100
N516        N  0.89660600  0.64648610  0.21086125    -0.28400
C517        C  0.90230775  0.64925450  0.22157201    -0.04500
C518        C  0.89373974  0.64833610  0.23099495     0.07700
C519        C  0.88283235  0.64499999  0.22528818     0.01500
H520        H  0.91197180  0.65155671  0.22245165     0.09200
H521        H  0.87397675  0.64360963  0.22963996     0.08200
N522        N  0.90919771  0.64220232  0.17505894    -0.35600
N523        N  0.90193963  0.63961717  0.16556380    -0.27800
C524        C  0.90897783  0.63836858  0.15538058    -0.03000
C525        C  0.92118431  0.64017374  0.15871353     0.05600
C526        C  0.92093074  0.64257036  0.17122166     0.03700
H527        H  0.90548211  0.63622791  0.14627299     0.08800
H528        H  0.92870796  0.64448474  0.17717752     0.07600
N529        N  0.89102126  0.67072457  0.33438520    -0.26800
N530        N  0.89449981  0.68174200  0.33043492    -0.34600
C531        C  0.89737858  0.68097989  0.31837529     0.01600
C532        C  0.89543958  0.66898119  0.31449134     0.07600
C533        C  0.89137621  0.66273429  0.32486657    -0.05500
H534        H  0.90011950  0.68872466  0.31271094     0.08300
H535        H  0.88878738  0.65311189  0.32544099     0.09500
Cu536      Cu  0.89377967  0.69767047  0.34120064     0.44200
Cu537      Cu  0.88598357  0.66705371  0.35260014     0.42000
Cu538      Cu  0.88292333  0.69355732  0.37255815     0.43900
N539        N  0.88967485  0.71225710  0.35304496    -0.34100
N540        N  0.88520086  0.71067730  0.36427962    -0.28400
C541        C  0.88224332  0.72174256  0.36905336    -0.04500
C542        C  0.88514292  0.73073845  0.36050584     0.07700
C543        C  0.88986685  0.72442089  0.35046872     0.01500
H544        H  0.87808122  0.72311378  0.37801057     0.09200
H545        H  0.89262305  0.72831382  0.34170604     0.08200
N546        N  0.88175016  0.67549576  0.37883070    -0.35600
N547        N  0.88268972  0.66577324  0.37152151    -0.27800
C548        C  0.88194007  0.65546508  0.37842767    -0.03000
C549        C  0.88053041  0.65887875  0.39066358     0.05600
C550        C  0.88044373  0.67164046  0.39056518     0.03700
H551        H  0.88274378  0.64619020  0.37483634     0.08800
H552        H  0.87973600  0.67769233  0.39847022     0.07600
N553        N  0.70087259  0.66646495  0.14402859    -0.26800
N554        N  0.71146178  0.67037423  0.14865548    -0.34600
C555        C  0.71118465  0.68270720  0.14965606     0.01600
C556        C  0.69996058  0.68682334  0.14532115     0.07600
C557        C  0.69360288  0.67631437  0.14179393    -0.05500
H558        H  0.71874958  0.68829315  0.15300265     0.08300
H559        H  0.68437741  0.67584241  0.13801376     0.09500
Cu560      Cu  0.72641196  0.65920056  0.15236876     0.44200
Cu561      Cu  0.69701552  0.64783398  0.14139390     0.42000
Cu562      Cu  0.72413542  0.62760503  0.14426055     0.43900
N563        N  0.74139744  0.64749302  0.15226443    -0.34100
N564        N  0.74083171  0.63592793  0.14847143    -0.28400
C565        C  0.75224942  0.63102323  0.14876343    -0.04500
C566        C  0.76025409  0.63996479  0.15312533     0.07700
C567        C  0.75307138  0.65022844  0.15531543     0.01500
H568        H  0.75445960  0.62157118  0.14644044     0.09200
H569        H  0.75612091  0.65908465  0.15876825     0.08200
N570        N  0.70611288  0.62144365  0.14241188    -0.35600
N571        N  0.69630342  0.62862713  0.14123940    -0.27800
C572        C  0.68616581  0.62147485  0.14055451    -0.03000
C573        C  0.68981094  0.60925474  0.14139501     0.05600
C574        C  0.70247449  0.60959881  0.14258616     0.03700
H575        H  0.67684617  0.62493611  0.13972775     0.08800
H576        H  0.70862046  0.60179647  0.14360817     0.07600
N577        N  0.20711787  0.16090094  0.65131403    -0.26800
N578        N  0.21804006  0.16420764  0.64703629    -0.34600
C579        C  0.21765716  0.17613729  0.64368274     0.01600
C580        C  0.20601355  0.18061317  0.64612273     0.07600
C581        C  0.19954606  0.17074276  0.65097578    -0.05500
H582        H  0.22546796  0.18132198  0.64029316     0.08300
H583        H  0.19008885  0.17072542  0.65411598     0.09500
Cu584      Cu  0.23357826  0.15315632  0.64755337     0.44200
Cu585      Cu  0.20301543  0.14313867  0.65730201     0.42000
Cu586      Cu  0.22959541  0.12321491  0.66091777     0.43900
N587        N  0.24820744  0.14210498  0.65283570    -0.34100
N588        N  0.24671796  0.13129193  0.65826924    -0.28400
C589        C  0.25778096  0.12703920  0.66193137    -0.04500
C590        C  0.26663931  0.13558195  0.65857417     0.07700
C591        C  0.26026855  0.14498268  0.65276964     0.01500
H592        H  0.25922057  0.11847573  0.66686302     0.09200
H593        H  0.26403363  0.15354676  0.64929959     0.08200
N594        N  0.21150932  0.11710513  0.66207417    -0.35600
N595        N  0.20174779  0.12432027  0.66084798    -0.27800
C596        C  0.19148749  0.11734704  0.66152586    -0.03000
C597        C  0.19499234  0.10518401  0.66325053     0.05600
C598        C  0.20774333  0.10539153  0.66356578     0.03700
H599        H  0.18219100  0.12083507  0.66054823     0.08800
H600        H  0.21388135  0.09758214  0.66453545     0.07600
N601        N  0.37097870  0.13627295  0.67657681    -0.26800
N602        N  0.36759990  0.13312299  0.68786771    -0.34600
C603        C  0.35535830  0.13132351  0.68804739     0.01600
C604        C  0.35077627  0.13368008  0.67640268     0.07600
C605        C  0.36089818  0.13678712  0.66932042    -0.05500
H606        H  0.35007983  0.12927874  0.69625453     0.08300
H607        H  0.36091527  0.13950242  0.65971295     0.09500
Cu608      Cu  0.37895878  0.13403171  0.70320763     0.44200
Cu609      Cu  0.38900460  0.14050493  0.67182776     0.42000
Cu610      Cu  0.40825552  0.14822442  0.69812690     0.43900
N611        N  0.38982185  0.14077765  0.71740484    -0.34100
N612        N  0.40029818  0.14667448  0.71546641    -0.28400
C613        C  0.40452914  0.15107068  0.72628370    -0.04500
C614        C  0.39635056  0.14767036  0.73546259     0.07700
C615        C  0.38716375  0.14112447  0.72951931     0.01500
H616        H  0.41294808  0.15630608  0.72737417     0.09200
H617        H  0.37895089  0.13724908  0.73362601     0.08200
N618        N  0.41464183  0.14725001  0.68009906    -0.35600
N619        N  0.40767053  0.14443054  0.67047844    -0.27800
C620        C  0.41475296  0.14410221  0.66029699    -0.03000
C621        C  0.42674531  0.14679639  0.66370034     0.05600
C622        C  0.42633406  0.14874287  0.67631082     0.03700
H623        H  0.41146595  0.14177289  0.65115870     0.08800
H624        H  0.43398950  0.15086123  0.68235711     0.07600
N625        N  0.18285489  0.32326184  0.67196022    -0.26800
N626        N  0.17900333  0.31206052  0.67489834    -0.34600
C627        C  0.17620784  0.31172642  0.68696321     0.01600
C628        C  0.17851226  0.32322247  0.69195245     0.07600
C629        C  0.18278084  0.33031385  0.68221400    -0.05500
H630        H  0.17311132  0.30357540  0.69181596     0.08300
H631        H  0.18555468  0.33989496  0.68254260     0.09500
Cu632      Cu  0.17895409  0.29719657  0.66293449     0.44200
Cu633      Cu  0.18766145  0.32828297  0.65395731     0.42000
Cu634      Cu  0.19259071  0.30217728  0.63334300     0.43900
N635        N  0.18347913  0.28297265  0.65107071    -0.34100
N636        N  0.18913404  0.28473037  0.64043083    -0.28400
C637        C  0.19210849  0.27369247  0.63558701    -0.04500
C638        C  0.18805372  0.26459168  0.64357543     0.07700
C639        C  0.18258266  0.27079654  0.65324774     0.01500
H640        H  0.19703602  0.27241688  0.62701648     0.09200
H641        H  0.17878110  0.26678535  0.66155115     0.08200
N642        N  0.19266210  0.32046763  0.62764011    -0.35600
N643        N  0.19064289  0.33002608  0.63496014    -0.27800
C644        C  0.19011385  0.34034822  0.62799883    -0.03000
C645        C  0.19189900  0.33707415  0.61575575     0.05600
C646        C  0.19353256  0.32443470  0.61592299     0.03700
H647        H  0.18823744  0.34948285  0.63154960     0.08800
H648        H  0.19479725  0.31846649  0.60802518     0.07600
N649        N  0.39649993  0.16675733  0.83976069    -0.26800
N650        N  0.39964003  0.17797852  0.83613987    -0.34600
C651        C  0.40164390  0.17789430  0.82391545     0.01600
C652        C  0.39947255  0.16612913  0.81956982     0.07600
C653        C  0.39623240  0.15926551  0.82984400    -0.05500
H654        H  0.40374038  0.18599384  0.81847058     0.08300
H655        H  0.39355736  0.14965268  0.83005741     0.09500
Cu656      Cu  0.39871675  0.19348668  0.84723504     0.44200
Cu657      Cu  0.39187182  0.16254145  0.85789566     0.42000
Cu658      Cu  0.38422708  0.18925237  0.87665835     0.43900
N659        N  0.39272146  0.20798193  0.85810269    -0.34100
N660        N  0.38679186  0.20637960  0.86861792    -0.28400
C661        C  0.38290693  0.21739486  0.87278097    -0.04500
C662        C  0.38667423  0.22634551  0.86451249     0.07700
C663        C  0.39290372  0.22008077  0.85534851     0.01500
H664        H  0.37764613  0.21874973  0.88113817     0.09200
H665        H  0.39680389  0.22395516  0.84702634     0.08200
N666        N  0.38420747  0.17130165  0.88318978    -0.35600
N667        N  0.38716535  0.16156415  0.87646380    -0.27800
C668        C  0.38686294  0.15145250  0.88367232    -0.03000
C669        C  0.38353883  0.15501969  0.89545266     0.05600
C670        C  0.38191323  0.16765691  0.89481556     0.03700
H671        H  0.38908727  0.14221971  0.88060554     0.08800
H672        H  0.37953942  0.17381862  0.90229007     0.07600
N673        N  0.36515377  0.32974267  0.85726680    -0.26800
N674        N  0.35402780  0.32612616  0.86064383    -0.34600
C675        C  0.35429429  0.31400685  0.86321239     0.01600
C676        C  0.36610269  0.30975348  0.86118537     0.07600
C677        C  0.37278214  0.31994290  0.85740433    -0.05500
H678        H  0.34634471  0.30859037  0.86583306     0.08300
H679        H  0.38242309  0.32022103  0.85489570     0.09500
Cu680      Cu  0.33858813  0.33725917  0.85983291     0.44200
Cu681      Cu  0.36919129  0.34785843  0.85265851     0.42000
Cu682      Cu  0.34251533  0.36711538  0.84584643     0.43900
N683        N  0.32405154  0.34820392  0.85414356    -0.34100
N684        N  0.32544921  0.35885253  0.84836181    -0.28400
C685        C  0.31428874  0.36310247  0.84495772    -0.04500
C686        C  0.30549800  0.35473690  0.84889971     0.07700
C687        C  0.31199557  0.34544216  0.85470375     0.01500
H688        H  0.31270781  0.37166352  0.84006401     0.09200
H689        H  0.30827393  0.33710743  0.85873504     0.08200
N690        N  0.36047459  0.37365868  0.84684582    -0.35600
N691        N  0.37014459  0.36671284  0.84954547    -0.27800
C692        C  0.38018570  0.37394287  0.85046074    -0.03000
C693        C  0.37665256  0.38599521  0.84818106     0.05600
C694        C  0.36412703  0.38547288  0.84589222     0.03700
H695        H  0.38931187  0.37067305  0.85282989     0.08800
H696        H  0.35803342  0.39316753  0.84405167     0.07600
N697        N  0.20069649  0.34954810  0.83535547    -0.26800
N698        N  0.20353322  0.35405268  0.82438329    -0.34600
C699        C  0.21556984  0.35688206  0.82416267     0.01600
C700        C  0.22062172  0.35386254  0.83545171     0.07600
C701        C  0.21096239  0.34922455  0.84237272    -0.05500
H702        H  0.22043026  0.36021617  0.81611937     0.08300
H703        H  0.21139535  0.34565608  0.85168828     0.09500
Cu704      Cu  0.19180878  0.35400072  0.80933695     0.44200
Cu705      Cu  0.18307304  0.34356531  0.83980741     0.42000
Cu706      Cu  0.16334943  0.33799949  0.81290790     0.43900
N707        N  0.18117795  0.34839692  0.79452337    -0.34100
N708        N  0.17094195  0.34191993  0.79575195    -0.28400
C709        C  0.16705350  0.33834803  0.78449358    -0.04500
C710        C  0.17522398  0.34288084  0.77580539     0.07700
C711        C  0.18404431  0.34922388  0.78249458     0.01500
H712        H  0.15902870  0.33267467  0.78278394     0.09200
H713        H  0.19227668  0.35358879  0.77895867     0.08200
N714        N  0.15760050  0.33637874  0.83112881    -0.35600
N715        N  0.16463926  0.33851016  0.84088768    -0.27800
C716        C  0.15777764  0.33734303  0.85116378    -0.03000
C717        C  0.14588644  0.33432039  0.84769171     0.05600
C718        C  0.14611875  0.33376654  0.83494047     0.03700
H719        H  0.16113484  0.33887070  0.86044545     0.08800
H720        H  0.13843984  0.33195490  0.82882424     0.07600
N721        N  0.19747999  0.63534935  0.17190411    -0.26800
N722        N  0.20101725  0.63270827  0.18330379    -0.34600
C723        C  0.21326515  0.63087252  0.18345895     0.01600
C724        C  0.21767917  0.63261958  0.17165822     0.07600
C725        C  0.20747239  0.63549692  0.16455822    -0.05500
H726        H  0.21863463  0.62904723  0.19168595     0.08300
H727        H  0.20732594  0.63765525  0.15481175     0.09500
Cu728      Cu  0.18970608  0.63348175  0.19865995     0.44200
Cu729      Cu  0.17929320  0.63890770  0.16684058     0.42000
Cu730      Cu  0.15895667  0.64360699  0.19287527     0.43900
N731        N  0.17763386  0.63822875  0.21266587    -0.34100
N732        N  0.16644520  0.64253362  0.21047199    -0.28400
C733        C  0.16117578  0.64570700  0.22123737    -0.04500
C734        C  0.16941665  0.64313560  0.23066062     0.07700
C735        C  0.17974036  0.63837604  0.22490901     0.01500
H736        H  0.15199886  0.64950724  0.22213009     0.09200
H737        H  0.18826799  0.63553920  0.22926309     0.08200
N738        N  0.15306041  0.64335763  0.17465137    -0.35600
N739        N  0.16039843  0.64180924  0.16504743    -0.27800
C740        C  0.15354862  0.64210133  0.15464685    -0.03000
C741        C  0.14133563  0.64384673  0.15793887     0.05600
C742        C  0.14139314  0.64457482  0.17065852     0.03700
H743        H  0.15716685  0.64093652  0.14542862     0.08800
H744        H  0.13350512  0.64586909  0.17660932     0.07600
N745        N  0.17013260  0.66266882  0.33437783    -0.26800
N746        N  0.16594240  0.67350591  0.33061119    -0.34600
C747        C  0.16269962  0.67268178  0.31865770     0.01600
C748        C  0.16514972  0.66084186  0.31463977     0.07600
C749        C  0.16986015  0.65472329  0.32483119    -0.05500
H750        H  0.15960852  0.68037314  0.31308080     0.08300
H751        H  0.17317344  0.64531253  0.32520260     0.09500
Cu752      Cu  0.16707559  0.68957538  0.34095607     0.44200
Cu753      Cu  0.17650114  0.65936305  0.35219775     0.42000
Cu754      Cu  0.18256490  0.68663693  0.37028945     0.43900
N755        N  0.17340333  0.70454951  0.35106994    -0.34100
N756        N  0.17963423  0.70336297  0.36150271    -0.28400
C757        C  0.18369326  0.71451381  0.36508355    -0.04500
C758        C  0.17974984  0.72314607  0.35653834     0.07700
C759        C  0.17320607  0.71653889  0.34780534     0.01500
H760        H  0.18921702  0.71617261  0.37323920     0.09200
H761        H  0.16909743  0.72008777  0.33941750     0.08200
N762        N  0.18313856  0.66892654  0.37745731    -0.35600
N763        N  0.18097167  0.65889552  0.37086234    -0.27800
C764        C  0.18118385  0.64900948  0.37838920    -0.03000
C765        C  0.18352912  0.65304337  0.39027232     0.05600
C766        C  0.18476040  0.66571388  0.38933404     0.03700
H767        H  0.17931826  0.63964007  0.37549709     0.08800
H768        H  0.18631695  0.67218855  0.39676810     0.07600
N769        N  0.35896713  0.66477496  0.14500017    -0.26800
N770        N  0.34787397  0.66788248  0.14094357    -0.34600
C771        C  0.34749337  0.68012179  0.13900081     0.01600
C772        C  0.35880968  0.68502266  0.14214849     0.07600
C773        C  0.36586216  0.67507503  0.14597882    -0.05500
H774        H  0.33936312  0.68515557  0.13612454     0.08300
H775        H  0.37527734  0.67531034  0.14928195     0.09500
Cu776      Cu  0.33296548  0.65602745  0.14013805     0.44200
Cu777      Cu  0.36411133  0.64662235  0.14902122     0.42000
Cu778      Cu  0.33805550  0.62589778  0.15208425     0.43900
N779        N  0.31877982  0.64417641  0.14474385    -0.34100
N780        N  0.32068016  0.63323789  0.14977430    -0.28400
C781        C  0.30980923  0.62838116  0.15318085    -0.04500
C782        C  0.30064128  0.63665776  0.15003391     0.07700
C783        C  0.30662766  0.64655754  0.14467986     0.01500
H784        H  0.30870070  0.61960016  0.15779985     0.09200
H785        H  0.30254151  0.65511650  0.14155207     0.08200
N786        N  0.35617950  0.62021828  0.15259279    -0.35600
N787        N  0.36583518  0.62757795  0.15151379    -0.27800
C788        C  0.37615884  0.62063054  0.15186339    -0.03000
C789        C  0.37273419  0.60837836  0.15320326     0.05600
C790        C  0.36001978  0.60850379  0.15362640     0.03700
H791        H  0.38542773  0.62419977  0.15100546     0.08800
H792        H  0.35392798  0.60065312  0.15446255     0.07600
N793        N  0.20126645  0.82703759  0.35204061    -0.26800
N794        N  0.21218660  0.82293693  0.35558656    -0.34600
C795        C  0.21169701  0.81067885  0.35708697     0.01600
C796        C  0.19996166  0.80676861  0.35420377     0.07600
C797        C  0.19351497  0.81735400  0.35100513    -0.05500
H798        H  0.21942222  0.80499148  0.35986375     0.08300
H799        H  0.18392030  0.81800215  0.34834014     0.09500
Cu800      Cu  0.22764739  0.83376841  0.35744577     0.44200
Cu801      Cu  0.19786281  0.84577470  0.34960570     0.42000
Cu802      Cu  0.22487735  0.86624728  0.35479864     0.43900
N803        N  0.24268181  0.84532099  0.35689538    -0.34100
N804        N  0.24182439  0.85745504  0.35619257    -0.28400
C805        C  0.25325752  0.86224830  0.35544868    -0.04500
C806        C  0.26160956  0.85257032  0.35553647     0.07700
C807        C  0.25458571  0.84200849  0.35642686     0.01500
H808        H  0.25528538  0.87195697  0.35433044     0.09200
H809        H  0.25785879  0.83257472  0.35643196     0.08200
N810        N  0.20685493  0.87220270  0.35216355    -0.35600
N811        N  0.19722136  0.86496076  0.35015919    -0.27800
C812        C  0.18702165  0.87199449  0.34929010    -0.03000
C813        C  0.19041815  0.88419389  0.35081739     0.05600
C814        C  0.20302312  0.88398637  0.35257613     0.03700
H815        H  0.17780161  0.86843893  0.34794823     0.08800
H816        H  0.20896284  0.89181463  0.35432026     0.07600
N817        N  0.36532144  0.85905253  0.33746972    -0.26800
N818        N  0.36288796  0.85098910  0.32865484    -0.34600
C819        C  0.35119806  0.84708875  0.32980968     0.01600
C820        C  0.34596748  0.85313710  0.33971932     0.07600
C821        C  0.35513866  0.86069115  0.34435562    -0.05500
H822        H  0.34660649  0.84095961  0.32340246     0.08300
H823        H  0.35439570  0.86709012  0.35197568     0.09500
Cu824      Cu  0.37462782  0.84767346  0.31403378     0.44200
Cu825      Cu  0.38228619  0.86771795  0.33905128     0.42000
Cu826      Cu  0.40087738  0.86814618  0.31113742     0.43900
N827        N  0.38494348  0.84949658  0.29811395    -0.34100
N828        N  0.39403382  0.85749574  0.29670610    -0.28400
C829        C  0.39798339  0.85702192  0.28493666    -0.04500
C830        C  0.39109894  0.84823278  0.27873770     0.07700
C831        C  0.38293843  0.84365821  0.28737361     0.01500
H832        H  0.40534796  0.86260538  0.28120020     0.09200
H833        H  0.37580223  0.83684623  0.28589722     0.08200
N834        N  0.40698946  0.87458306  0.32816594    -0.35600
N835        N  0.40027676  0.87415187  0.33833113    -0.27800
C836        C  0.40737566  0.87725488  0.34802624    -0.03000
C837        C  0.41913006  0.87975019  0.34378997     0.05600
C838        C  0.41853695  0.87804840  0.33114990     0.03700
H839        H  0.40434607  0.87703046  0.35752381     0.08800
H840        H  0.42613473  0.87846048  0.32471541     0.07600
N841        N  0.38975198  0.82837259  0.17445310    -0.26800
N842        N  0.38831737  0.81690619  0.17838798    -0.34600
C843        C  0.38907751  0.81663309  0.19072671     0.01600
C844        C  0.39125722  0.82842542  0.19489378     0.07600
C845        C  0.39169763  0.83571094  0.18435382    -0.05500
H846        H  0.38792205  0.80841884  0.19628566     0.08300
H847        H  0.39281414  0.84562185  0.18395287     0.09500
Cu848      Cu  0.38483584  0.80181748  0.16738578     0.44200
Cu849      Cu  0.38787317  0.83310786  0.15575515     0.42000
Cu850      Cu  0.37891198  0.80659288  0.13588171     0.43900
N851        N  0.38035166  0.78751411  0.15571709    -0.34100
N852        N  0.37759972  0.78923588  0.14397403    -0.28400
C853        C  0.37471021  0.77826402  0.13888168    -0.04500
C854        C  0.37591226  0.76924960  0.14787876     0.07700
C855        C  0.37950292  0.77545146  0.15842603     0.01500
H856        H  0.37221370  0.77691323  0.12930736     0.09200
H857        H  0.38125496  0.77152547  0.16744195     0.08200
N858        N  0.38230775  0.82442068  0.12958764    -0.35600
N859        N  0.38532493  0.83401337  0.13655039    -0.27800
C860        C  0.38710861  0.84387606  0.12914719    -0.03000
C861        C  0.38527941  0.84024551  0.11700347     0.05600
C862        C  0.38225973  0.82789220  0.11767420     0.03700
H863        H  0.38994526  0.85289784  0.13233641     0.08800
H864        H  0.38036150  0.82177606  0.11001484     0.07600
N865        N  0.67050212  0.16949819  0.16652586    -0.26800
N866        N  0.66754373  0.18095107  0.16957316    -0.34600
C867        C  0.66523896  0.18143769  0.18172497     0.01600
C868        C  0.66690378  0.16979021  0.18661808     0.07600
C869        C  0.67025800  0.16242925  0.17675524    -0.05500
H870        H  0.66294807  0.18978588  0.18668443     0.08300
H871        H  0.67244813  0.15269096  0.17700155     0.09500
Cu872      Cu  0.66799485  0.19604183  0.15783003     0.44200
Cu873      Cu  0.67480126  0.16399485  0.14864315     0.42000
Cu874      Cu  0.67936359  0.18983154  0.12791276     0.43900
N875        N  0.67253147  0.20996938  0.14555262    -0.34100
N876        N  0.67739133  0.20756068  0.13465862    -0.28400
C877        C  0.68072447  0.21820368  0.12925419    -0.04500
C878        C  0.67768530  0.22779448  0.13708337     0.07700
C879        C  0.67245497  0.22226944  0.14732149     0.01500
H880        H  0.68517512  0.21888478  0.12035857     0.09200
H881        H  0.66942702  0.22678989  0.15568133     0.08200
N882        N  0.67916221  0.17159370  0.12231002    -0.35600
N883        N  0.67754300  0.16205624  0.12974321    -0.27800
C884        C  0.67704925  0.15167903  0.12290182    -0.03000
C885        C  0.67836260  0.15491341  0.11061104     0.05600
C886        C  0.67970594  0.16759446  0.11060758     0.03700
H887        H  0.67536188  0.14254432  0.12655199     0.08800
H888        H  0.68057510  0.17357478  0.10266719     0.07600
N889        N  0.70190945  0.33071612  0.13697934    -0.26800
N890        N  0.71310416  0.32659895  0.13448239    -0.34600
C891        C  0.71253729  0.31439881  0.13226094     0.01600
C892        C  0.70044126  0.31063969  0.13358306     0.07600
C893        C  0.69394439  0.32120843  0.13657883    -0.05500
H894        H  0.72044428  0.30858802  0.13046399     0.08300
H895        H  0.68419896  0.32191240  0.13854675     0.09500
Cu896      Cu  0.72885602  0.33733011  0.13609171     0.44200
Cu897      Cu  0.69813488  0.34900323  0.14127417     0.42000
Cu898      Cu  0.72485968  0.36762416  0.14928573     0.43900
N899        N  0.74334202  0.34822463  0.14220861    -0.34100
N900        N  0.74186022  0.35898049  0.14776717    -0.28400
C901        C  0.75287124  0.36292443  0.15195256    -0.04500
C902        C  0.76167826  0.35427274  0.14872113     0.07700
C903        C  0.75533767  0.34513340  0.14251420     0.01500
H904        H  0.75432591  0.37139461  0.15702985     0.09200
H905        H  0.75907135  0.33657118  0.13900470     0.08200
N906        N  0.70706082  0.37451288  0.14785100    -0.35600
N907        N  0.69732056  0.36781747  0.14482954    -0.27800
C908        C  0.68739927  0.37525698  0.14404553    -0.03000
C909        C  0.69109804  0.38717626  0.14670160     0.05600
C910        C  0.70360421  0.38635457  0.14908329     0.03700
H911        H  0.67822614  0.37223724  0.14153710     0.08800
H912        H  0.70982219  0.39383442  0.15129859     0.07600
N913        N  0.69267045  0.14104414  0.32972704    -0.26800
N914        N  0.69593893  0.13716447  0.31863546    -0.34600
C915        C  0.70777187  0.13346858  0.31898173     0.01600
C916        C  0.71221625  0.13522911  0.33081939     0.07600
C917        C  0.70242070  0.14007455  0.33738277    -0.05500
H918        H  0.71291952  0.13032415  0.31104538     0.08300
H919        H  0.70242939  0.14286739  0.34696527     0.09500
Cu920      Cu  0.68483569  0.13867095  0.30309211     0.44200
Cu921      Cu  0.67511227  0.14760864  0.33384099     0.42000
Cu922      Cu  0.65576208  0.15428398  0.30748985     0.43900
N923        N  0.67362033  0.14449873  0.28869243    -0.34100
N924        N  0.66335392  0.15086340  0.29033488    -0.28400
C925        C  0.65893646  0.15441349  0.27928714    -0.04500
C926        C  0.66669742  0.14990127  0.27027602     0.07700
C927        C  0.67590059  0.14364491  0.27652999     0.01500
H928        H  0.65071728  0.15991342  0.27793160     0.09200
H929        H  0.68395249  0.13929111  0.27258144     0.08200
N930        N  0.64954754  0.15485293  0.32551682    -0.35600
N931        N  0.65658183  0.15242020  0.33519774    -0.27800
C932        C  0.64958672  0.15277556  0.34543456    -0.03000
C933        C  0.63760079  0.15552442  0.34200298     0.05600
C934        C  0.63791568  0.15679992  0.32931023     0.03700
H935        H  0.65290497  0.15080010  0.35464753     0.08800
H936        H  0.63021831  0.15863661  0.32321845     0.07600
N937        N  0.86390132  0.34167849  0.17360708    -0.26800
N938        N  0.85996896  0.34472381  0.18474073    -0.34600
C939        C  0.84788825  0.34735611  0.18419651     0.01600
C940        C  0.84395784  0.34578816  0.17219443     0.07600
C941        C  0.85431105  0.34213608  0.16568957    -0.05500
H942        H  0.84234399  0.35008461  0.19201920     0.08300
H943        H  0.85489829  0.34022390  0.15591238     0.09500
Cu944      Cu  0.87079851  0.34477290  0.20044883     0.44200
Cu945      Cu  0.88230989  0.33786006  0.16975970     0.42000
Cu946      Cu  0.90215595  0.33560185  0.19697666     0.43900
N947        N  0.88250179  0.34207788  0.21526950    -0.34100
N948        N  0.89394526  0.33810576  0.21403559    -0.28400
C949        C  0.89884127  0.33626468  0.22530227    -0.04500
C950        C  0.89008258  0.33939492  0.23399984     0.07700
C951        C  0.87983727  0.34305788  0.22733596     0.01500
H952        H  0.90806572  0.33287039  0.22702640     0.09200
H953        H  0.87095887  0.34577668  0.23095855     0.08200
N954        N  0.90850198  0.33527117  0.17895382    -0.35600
N955        N  0.90140962  0.33607799  0.16903333    -0.27800
C956        C  0.90861867  0.33605789  0.15892334    -0.03000
C957        C  0.92078789  0.33521037  0.16271975     0.05600
C958        C  0.92035224  0.33472663  0.17543763     0.03700
H959        H  0.90524777  0.33677666  0.14954893     0.08800
H960        H  0.92810531  0.33417225  0.18171355     0.07600
N961        N  0.88747077  0.32355381  0.33815826    -0.26800
N962        N  0.89055604  0.31217111  0.33502599    -0.34600
C963        C  0.89356546  0.31196304  0.32301091     0.01600
C964        C  0.89215708  0.32373659  0.31832578     0.07600
C965        C  0.88822279  0.33085439  0.32813359    -0.05500
H966        H  0.89593396  0.30371478  0.31791847     0.08300
H967        H  0.88594419  0.34057294  0.32797530     0.09500
Cu968      Cu  0.88874936  0.29702705  0.34654301     0.44200
Cu969      Cu  0.88233243  0.32852687  0.35591157     0.42000
Cu970      Cu  0.87532980  0.30279672  0.37621448     0.43900
N971        N  0.88232929  0.28315052  0.35798391    -0.34100
N972        N  0.87666304  0.28527998  0.36855455    -0.28400
C973        C  0.87229319  0.27453791  0.37301017    -0.04500
C974        C  0.87553614  0.26523179  0.36489575     0.07700
C975        C  0.88192945  0.27100159  0.35552892     0.01500
H976        H  0.86713756  0.27358962  0.38148892     0.09200
H977        H  0.88554154  0.26676412  0.34725497     0.08200
N978        N  0.87646727  0.32103346  0.38202229    -0.35600
N979        N  0.87892388  0.33044886  0.37465559    -0.27800
C980        C  0.87957235  0.34084086  0.38144036    -0.03000
C981        C  0.87746822  0.33777554  0.39365380     0.05600
C982        C  0.87553235  0.32517257  0.39367127     0.03700
H983        H  0.88175965  0.34986702  0.37778734     0.08800
H984        H  0.87383199  0.31937530  0.40161756     0.07600
N985        N  0.85385631  0.16157557  0.36024256    -0.26800
N986        N  0.84250522  0.16511710  0.36291368    -0.34600
C987        C  0.84232963  0.17741610  0.36447787     0.01600
C988        C  0.85409098  0.18186610  0.36259268     0.07600
C989        C  0.86119086  0.17159435  0.35989106    -0.05500
H990        H  0.83416676  0.18275507  0.36655863     0.08300
H991        H  0.87096238  0.17138786  0.35793689     0.09500
Cu992      Cu  0.82744192  0.15340037  0.36317610     0.44200
Cu993      Cu  0.85871001  0.14320463  0.35752675     0.42000
Cu994      Cu  0.83258545  0.12248147  0.35284032     0.43900
N995        N  0.81327938  0.14135921  0.35883177    -0.34100
N996        N  0.81513100  0.13024651  0.35417497    -0.28400
C997        C  0.80418770  0.12537624  0.35086900    -0.04500
C998        C  0.79504264  0.13378078  0.35379270     0.07700
C999        C  0.80113108  0.14378269  0.35884720     0.01500
H1000       H  0.80298908  0.11642113  0.34662740     0.09200
H1001       H  0.79709473  0.15243022  0.36176471     0.08200
N1002       N  0.85078735  0.11667306  0.35427332    -0.35600
N1003       N  0.86028260  0.12412846  0.35605128    -0.27800
C1004       C  0.87062667  0.11731012  0.35697324    -0.03000
C1005       C  0.86747944  0.10500988  0.35569874     0.05600
C1006       C  0.85483756  0.10494848  0.35400885     0.03700
H1007       H  0.87975243  0.12103394  0.35851167     0.08800
H1008       H  0.84896546  0.09697950  0.35277197     0.07600
N1009       N  0.36009560  0.33317733  0.14290163    -0.26800
N1010       N  0.34892636  0.32929377  0.13988137    -0.34600
C1011       C  0.34920114  0.31699757  0.13826820     0.01600
C1012       C  0.36105490  0.31290146  0.14054272     0.07600
C1013       C  0.36772330  0.32337472  0.14349653    -0.05500
H1014       H  0.34122352  0.31139010  0.13615538     0.08300
H1015       H  0.37737811  0.32383331  0.14597398     0.09500
Cu1016     Cu  0.33333963  0.34038024  0.13975696     0.44200
Cu1017     Cu  0.36436100  0.35161383  0.14635490     0.42000
Cu1018     Cu  0.33776435  0.37129221  0.15104135     0.43900
N1019       N  0.31885808  0.35211063  0.14398875    -0.34100
N1020       N  0.32046263  0.36320873  0.14879385    -0.28400
C1021       C  0.30938730  0.36786794  0.15189835    -0.04500
C1022       C  0.30040821  0.35935822  0.14873945     0.07700
C1023       C  0.30673457  0.34948976  0.14372431     0.01500
H1024       H  0.30798998  0.37670984  0.15631002     0.09200
H1025       H  0.30288550  0.34078263  0.14072470     0.08200
N1026       N  0.35590388  0.37766756  0.15124017    -0.35600
N1027       N  0.36564988  0.37055434  0.14944963    -0.27800
C1028       C  0.37587473  0.37763197  0.14956600    -0.03000
C1029       C  0.37239040  0.38977421  0.15149954     0.05600
C1030       C  0.35966624  0.38942486  0.15253357     0.03700
H1031       H  0.38512562  0.37422994  0.14805782     0.08800
H1032       H  0.35353090  0.39718052  0.15384589     0.07600
N1033       N  0.39899777  0.17067471  0.16730747    -0.26800
N1034       N  0.40126812  0.18190526  0.17150230    -0.34600
C1035       C  0.40373903  0.18127097  0.18364987     0.01600
C1036       C  0.40277356  0.16910643  0.18732961     0.07600
C1037       C  0.39974681  0.16261749  0.17674662    -0.05500
H1038       H  0.40531959  0.18918591  0.18952308     0.08300
H1039       H  0.39790284  0.15283489  0.17601405     0.09500
Cu1040     Cu  0.39888990  0.19782188  0.16110431     0.44200
Cu1041     Cu  0.39443051  0.16703953  0.14903707     0.42000
Cu1042     Cu  0.38861092  0.19389741  0.12965731     0.43900
N1043       N  0.39308303  0.21233223  0.15000741    -0.34100
N1044       N  0.38890151  0.21085433  0.13863201    -0.28400
C1045       C  0.38480765  0.22179124  0.13437538    -0.04500
C1046       C  0.38663415  0.23057026  0.14345656     0.07700
C1047       C  0.39191950  0.22426766  0.15322945     0.01500
H1048       H  0.38070963  0.22322201  0.12537625     0.09200
H1049       H  0.39429207  0.22796911  0.16219426     0.08200
N1050       N  0.38880181  0.17584111  0.12316825    -0.35600
N1051       N  0.39075042  0.16607782  0.13024380    -0.27800
C1052       C  0.39027720  0.15584169  0.12323401    -0.03000
C1053       C  0.38795832  0.15932609  0.11118409     0.05600
C1054       C  0.38708043  0.17206738  0.11146454     0.03700
H1055       H  0.39168680  0.14656204  0.12664146     0.08800
H1056       H  0.38538192  0.17817196  0.10374752     0.07600
N1057       N  0.36600039  0.13597533  0.32791095    -0.26800
N1058       N  0.36278907  0.13713555  0.31617872    -0.34600
C1059       C  0.35045763  0.13701058  0.31524266     0.01600
C1060       C  0.34557991  0.13552534  0.32688207     0.07600
C1061       C  0.35566516  0.13481322  0.33473508    -0.05500
H1062       H  0.34541078  0.13804325  0.30668158     0.08300
H1063       H  0.35548866  0.13404453  0.34468578     0.09500
Cu1064     Cu  0.37482562  0.13941251  0.30160381     0.44200
Cu1065     Cu  0.38432213  0.13725473  0.33389015     0.42000
Cu1066     Cu  0.40576924  0.14575362  0.30877529     0.43900
N1067       N  0.38757805  0.14371079  0.28814339    -0.34100
N1068       N  0.39904060  0.14679082  0.29084479    -0.28400
C1069       C  0.40487365  0.15007110  0.28038706    -0.04500
C1070       C  0.39667919  0.14876841  0.27065067     0.07700
C1071       C  0.38583269  0.14466845  0.27589215     0.01500
H1072       H  0.41438699  0.15301261  0.27988917     0.09200
H1073       H  0.37720546  0.14286494  0.27120211     0.08200
N1074       N  0.41082049  0.14306382  0.32708921    -0.35600
N1075       N  0.40329969  0.13997526  0.33619348    -0.27800
C1076       C  0.40992943  0.13905586  0.34671300    -0.03000
C1077       C  0.42214296  0.14168593  0.34403562     0.05600
C1078       C  0.42232839  0.14415898  0.33154991     0.03700
H1079       H  0.40612748  0.13670816  0.35562755     0.08800
H1080       H  0.43028084  0.14660734  0.32606433     0.07600
N1081       N  0.20356272  0.15988991  0.36033271    -0.26800
N1082       N  0.21274593  0.16333960  0.35311920    -0.34600
C1083       C  0.21227794  0.17558964  0.35144958     0.01600
C1084       C  0.20242087  0.18016695  0.35803696     0.07600
C1085       C  0.19708690  0.16999507  0.36363177    -0.05500
H1086       H  0.21889606  0.18082635  0.34614156     0.08300
H1087       H  0.18903557  0.16991904  0.36949956     0.09500
Cu1088     Cu  0.22665035  0.15181765  0.34719024     0.44200
Cu1089     Cu  0.20053686  0.14143150  0.36480385     0.42000
Cu1090     Cu  0.22766399  0.12170843  0.36041002     0.43900
N1091       N  0.24224216  0.14093121  0.34690330    -0.34100
N1092       N  0.24295434  0.13012627  0.35251184    -0.28400
C1093       C  0.25466395  0.12604048  0.35191071    -0.04500
C1094       C  0.26155498  0.13469110  0.34552375     0.07700
C1095       C  0.25338174  0.14396633  0.34245063     0.01500
H1096       H  0.25789609  0.11742825  0.35580032     0.09200
H1097       H  0.25546762  0.15251835  0.33774251     0.08200
N1098       N  0.21026280  0.11520407  0.36512699    -0.35600
N1099       N  0.20037153  0.12224966  0.36638389    -0.27800
C1100       C  0.19045721  0.11495650  0.36802427    -0.03000
C1101       C  0.19430524  0.10278308  0.36788348     0.05600
C1102       C  0.20691097  0.10329070  0.36607201     0.03700
H1103       H  0.18108998  0.11826477  0.36890148     0.08800
H1104       H  0.21311942  0.09556750  0.36490447     0.07600
N1105       N  0.19800014  0.35738268  0.17527134    -0.26800
N1106       N  0.20243836  0.35989625  0.18634851    -0.34600
C1107       C  0.21464994  0.36162860  0.18557436     0.01600
C1108       C  0.21813954  0.35995736  0.17344836     0.07600
C1109       C  0.20737819  0.35720835  0.16713107    -0.05500
H1110       H  0.22059625  0.36360391  0.19335316     0.08300
H1111       H  0.20640979  0.35538140  0.15736447     0.09500
Cu1112     Cu  0.19203224  0.35972249  0.20224994     0.44200
Cu1113     Cu  0.17928762  0.35478429  0.17223804     0.42000
Cu1114     Cu  0.15945944  0.35595071  0.20010149     0.43900
N1115       N  0.18094980  0.35698180  0.21744652    -0.34100
N1116       N  0.16882735  0.35598197  0.21686656    -0.28400
C1117       C  0.16447404  0.35370183  0.22828431    -0.04500
C1118       C  0.17440966  0.35302337  0.23630642     0.07700
C1119       C  0.18468465  0.35512188  0.22911721     0.01500
H1120       H  0.15490638  0.35193319  0.23044383     0.09200
H1121       H  0.19421496  0.35499552  0.23207777     0.08200
N1122       N  0.15311790  0.35411088  0.18205755    -0.35600
N1123       N  0.16019660  0.35353749  0.17213293    -0.27800
C1124       C  0.15302111  0.35201612  0.16210702    -0.03000
C1125       C  0.14089129  0.35160010  0.16588777     0.05600
C1126       C  0.14127534  0.35296281  0.17857190     0.03700
H1127       H  0.15640589  0.35126583  0.15275571     0.08800
H1128       H  0.13354324  0.35302136  0.18485280     0.07600
N1129       N  0.16949654  0.32398451  0.33836288    -0.26800
N1130       N  0.17456038  0.31383515  0.33388293    -0.34600
C1131       C  0.17633934  0.31518647  0.32170050     0.01600
C1132       C  0.17200565  0.32664353  0.31824952     0.07600
C1133       C  0.16766439  0.33200492  0.32900699    -0.05500
H1134       H  0.18038623  0.30826366  0.31576619     0.08300
H1135       H  0.16387934  0.34118464  0.33002627     0.09500
Cu1136     Cu  0.17845605  0.29832490  0.34426990     0.44200
Cu1137     Cu  0.16662650  0.32649217  0.35725206     0.42000
Cu1138     Cu  0.17310668  0.29908560  0.37662663     0.43900
N1139       N  0.18008123  0.28295633  0.35543329    -0.34100
N1140       N  0.17782385  0.28300055  0.36740293    -0.28400
C1141       C  0.17927364  0.27145913  0.37183727    -0.04500
C1142       C  0.18263852  0.26388214  0.36211509     0.07700
C1143       C  0.18308202  0.27148271  0.35190673     0.01500
H1144       H  0.17806011  0.26883084  0.38138773     0.09200
H1145       H  0.18529700  0.26884352  0.34254294     0.08200
N1146       N  0.16970440  0.31669063  0.38335624    -0.35600
N1147       N  0.16729806  0.32655128  0.37653586    -0.27800
C1148       C  0.16643422  0.33645349  0.38401482    -0.03000
C1149       C  0.16844774  0.33263329  0.39604669     0.05600
C1150       C  0.17044827  0.32006085  0.39526451     0.03700
H1151       H  0.16492431  0.34581107  0.38087407     0.08800
H1152       H  0.17268732  0.31383498  0.40274398     0.07600
N1153       N  0.55631352  0.15012724  0.40946380    -0.26800
N1154       N  0.54959803  0.15179322  0.39942111    -0.34600
C1155       C  0.55702454  0.15414513  0.38981450     0.01600
C1156       C  0.56905558  0.15391049  0.39395176     0.07600
C1157       C  0.56830512  0.15136597  0.40648127    -0.05500
H1158       H  0.55389982  0.15546992  0.38041668     0.08300
H1159       H  0.57588892  0.15012369  0.41286062     0.09500
Cu1160     Cu  0.53078459  0.14960651  0.39900966     0.44200
Cu1161     Cu  0.54836961  0.14529361  0.42630311     0.42000
Cu1162     Cu  0.51489119  0.13853763  0.42611396     0.43900
N1163       N  0.51218216  0.14603823  0.39945175    -0.34100
N1164       N  0.50611591  0.14189412  0.40917056    -0.28400
C1165       C  0.49414360  0.14051815  0.40600290    -0.04500
C1166       C  0.49275218  0.14395693  0.39373183     0.07700
C1167       C  0.50438619  0.14738731  0.38993174     0.01500
H1168       H  0.48701182  0.13722561  0.41213410     0.09200
H1169       H  0.50707362  0.15059825  0.38087997     0.08200
N1170       N  0.52633375  0.13715375  0.44170396    -0.35600
N1171       N  0.53827288  0.13973548  0.44171605    -0.27800
C1172       C  0.54271324  0.13840557  0.45325546    -0.03000
C1173       C  0.53319460  0.13482360  0.46092145     0.05600
C1174       C  0.52293574  0.13410234  0.45328078     0.03700
H1175       H  0.55216921  0.14015421  0.45591817     0.08800
H1176       H  0.51362254  0.13180045  0.45597418     0.07600
N1177       N  0.43704130  0.47391016  0.14444217    -0.26800
N1178       N  0.42672636  0.48017416  0.14614642    -0.34600
C1179       C  0.41729301  0.47221911  0.14722915     0.01600
C1180       C  0.42184788  0.46035234  0.14621576     0.07600
C1181       C  0.43442115  0.46174560  0.14442944    -0.05500
H1182       H  0.40782348  0.47488462  0.14886061     0.08300
H1183       H  0.44118362  0.45448632  0.14337755     0.09500
Cu1184     Cu  0.42593731  0.49923204  0.14750639     0.44200
Cu1185     Cu  0.45414643  0.48247653  0.14280094     0.42000
Cu1186     Cu  0.45442474  0.51624328  0.14544972     0.43900
N1187       N  0.42702585  0.51826270  0.14894544    -0.34100
N1188       N  0.43741241  0.52458642  0.14816704    -0.28400
C1189       C  0.43487670  0.53669681  0.14938157    -0.04500
C1190       C  0.42228501  0.53798660  0.15100053     0.07700
C1191       C  0.41762334  0.52613620  0.15067401     0.01500
H1192       H  0.44167509  0.54398450  0.14900860     0.09200
H1193       H  0.40806592  0.52342517  0.15152387     0.08200
N1194       N  0.47010130  0.50543896  0.14334061    -0.35600
N1195       N  0.47003483  0.49326055  0.14240394    -0.27800
C1196       C  0.48174310  0.48922579  0.14156099    -0.03000
C1197       C  0.48952025  0.49932294  0.14198365     0.05600
C1198       C  0.48183045  0.50944750  0.14309607     0.03700
H1199       H  0.48439847  0.47962959  0.14084165     0.08800
H1200       H  0.48453493  0.51902247  0.14386013     0.07600
N1201       N  0.18584507  0.39884220  0.52948662    -0.26800
N1202       N  0.18680837  0.38847966  0.52312604    -0.34600
C1203       C  0.18858101  0.37903261  0.53098108     0.01600
C1204       C  0.18864949  0.38360669  0.54290560     0.07600
C1205       C  0.18689663  0.39621433  0.54161559    -0.05500
H1206       H  0.18936342  0.36947946  0.52820405     0.08300
H1207       H  0.18625296  0.40294843  0.54895186     0.09500
Cu1208     Cu  0.18462559  0.38739768  0.50410969     0.44200
Cu1209     Cu  0.18281488  0.41590587  0.52105792     0.42000
Cu1210     Cu  0.17773850  0.41542021  0.48750808     0.43900
N1211       N  0.18074395  0.38788570  0.48533768    -0.34100
N1212       N  0.17804238  0.39809699  0.47921565    -0.28400
C1213       C  0.17575444  0.39520137  0.46733442    -0.04500
C1214       C  0.17710403  0.38255901  0.46595438     0.07700
C1215       C  0.18026855  0.37824622  0.47754260     0.01500
H1216       H  0.17330186  0.40180918  0.46025671     0.09200
H1217       H  0.18202729  0.36876665  0.48014824     0.08200
N1218       N  0.17861926  0.43145162  0.49806475    -0.35600
N1219       N  0.18034497  0.43161639  0.51016297    -0.27800
C1220       C  0.18065038  0.44342434  0.51400624    -0.03000
C1221       C  0.17909738  0.45105429  0.50386224     0.05600
C1222       C  0.17784487  0.44315087  0.49392266     0.03700
H1223       H  0.18212407  0.44622841  0.52347154     0.08800
H1224       H  0.17658070  0.44571027  0.48435224     0.07600
N1225       N  0.87927210  0.40225348  0.52917556    -0.26800
N1226       N  0.87917595  0.39181582  0.52287907    -0.34600
C1227       C  0.87888697  0.38226767  0.53077993     0.01600
C1228       C  0.87883150  0.38687204  0.54267924     0.07600
C1229       C  0.87907697  0.39959110  0.54133353    -0.05500
H1230       H  0.87882891  0.37267853  0.52801996     0.08300
H1231       H  0.87914936  0.40639204  0.54863621     0.09500
Cu1232     Cu  0.87964378  0.39091750  0.50382666     0.44200
Cu1233     Cu  0.87970440  0.41943160  0.52050420     0.42000
Cu1234     Cu  0.88049860  0.41909349  0.48637914     0.43900
N1235       N  0.88003393  0.39145372  0.48475929    -0.34100
N1236       N  0.88039238  0.40172523  0.47819377    -0.28400
C1237       C  0.88040380  0.39876779  0.46610596    -0.04500
C1238       C  0.87999594  0.38602896  0.46509891     0.07700
C1239       C  0.87978333  0.38172421  0.47710684     0.01500
H1240       H  0.88055286  0.40538505  0.45863093     0.09200
H1241       H  0.87940399  0.37221609  0.48011540     0.08200
N1242       N  0.88007112  0.43500456  0.49713401    -0.35600
N1243       N  0.87980451  0.43513223  0.50935191    -0.27800
C1244       C  0.87936191  0.44692421  0.51322819    -0.03000
C1245       C  0.87932570  0.45456721  0.50298916     0.05600
C1246       C  0.87979118  0.44670584  0.49296171     0.03700
H1247       H  0.87897041  0.44969658  0.52280483     0.08800
H1248       H  0.87982003  0.44929001  0.48331845     0.07600
N1249       N  0.55658756  0.88319770  0.40371312    -0.26800
N1250       N  0.54988352  0.88376944  0.39353495    -0.34600
C1251       C  0.55736042  0.88362022  0.38368073     0.01600
C1252       C  0.56941049  0.88294698  0.38780691     0.07600
C1253       C  0.56860087  0.88272537  0.40057071    -0.05500
H1254       H  0.55420079  0.88380231  0.37420978     0.08300
H1255       H  0.57615162  0.88198880  0.40706839     0.09500
Cu1256     Cu  0.53085130  0.88422274  0.39337996     0.44200
Cu1257     Cu  0.54858943  0.88236349  0.42116975     0.42000
Cu1258     Cu  0.51447130  0.88077310  0.42192265     0.43900
N1259       N  0.51185427  0.88391410  0.39448360    -0.34100
N1260       N  0.50564786  0.88247126  0.40486174    -0.28400
C1261       C  0.49348711  0.88240311  0.40221651    -0.04500
C1262       C  0.49206886  0.88390003  0.38957940     0.07700
C1263       C  0.50390946  0.88483390  0.38501323     0.01500
H1264       H  0.48623681  0.88130341  0.40896341     0.09200
H1265       H  0.50661284  0.88596888  0.37548128     0.08200
N1266       N  0.52588160  0.88017087  0.43746506    -0.35600
N1267       N  0.53807435  0.88080656  0.43718767    -0.27800
C1268       C  0.54241830  0.88046219  0.44883381    -0.03000
C1269       C  0.53252076  0.87960616  0.45682271     0.05600
C1270       C  0.52220244  0.87943604  0.44930277     0.03700
H1271       H  0.55207451  0.88098824  0.45128524     0.08800
H1272       H  0.51268587  0.87897513  0.45222803     0.07600
N1273       N  0.43737704  0.47256178  0.85374994    -0.26800
N1274       N  0.42732673  0.47880861  0.85078968    -0.34600
C1275       C  0.41786386  0.47090784  0.84958047     0.01600
C1276       C  0.42213439  0.45910196  0.85191855     0.07600
C1277       C  0.43454474  0.46048141  0.85456430    -0.05500
H1278       H  0.40857075  0.47359635  0.84713840     0.08300
H1279       H  0.44107486  0.45323519  0.85669870     0.09500
Cu1280     Cu  0.42680353  0.49781464  0.84859121     0.44200
Cu1281     Cu  0.45449626  0.48091875  0.85577205     0.42000
Cu1282     Cu  0.45523088  0.51461216  0.85285552     0.43900
N1283       N  0.42792153  0.51691821  0.84805891    -0.34100
N1284       N  0.43822866  0.52318547  0.84984950    -0.28400
C1285       C  0.43567132  0.53535759  0.84926038    -0.04500
C1286       C  0.42316251  0.53675714  0.84697284     0.07700
C1287       C  0.41857970  0.52488128  0.84626525     0.01500
H1288       H  0.44240352  0.54262042  0.85045693     0.09200
H1289       H  0.40909618  0.52220846  0.84469575     0.08200
N1290       N  0.47092019  0.50351064  0.85446092    -0.35600
N1291       N  0.47057604  0.49134556  0.85551697    -0.27800
C1292       C  0.48217777  0.48695967  0.85584304    -0.03000
C1293       C  0.49025046  0.49680020  0.85494799     0.05600
C1294       C  0.48279630  0.50715140  0.85411018     0.03700
H1295       H  0.48453105  0.47728403  0.85653396     0.08800
H1296       H  0.48578266  0.51662548  0.85315462     0.07600
N1297       N  0.05745564  0.64723528  0.90434141    -0.26800
N1298       N  0.05152366  0.64575476  0.89376869    -0.34600
C1299       C  0.05966623  0.64618175  0.88445224     0.01600
C1300       C  0.07131035  0.64798987  0.88931991     0.07600
C1301       C  0.06959025  0.64863140  0.90198701    -0.05500
H1302       H  0.05727942  0.64515950  0.87480769     0.08300
H1303       H  0.07661352  0.64993805  0.90896758     0.09500
Cu1304     Cu  0.03261344  0.64296978  0.89226737     0.44200
Cu1305     Cu  0.04845924  0.64687997  0.92134131     0.42000
Cu1306     Cu  0.01503325  0.64020788  0.92001302     0.43900
N1307       N  0.01362852  0.64027830  0.89231942    -0.34100
N1308       N  0.00706863  0.63911090  0.90251292    -0.28400
C1309       C  0.99507123  0.63788513  0.89943283    -0.04500
C1310       C  0.99404610  0.63838815  0.88668649     0.07700
C1311       C  0.00601599  0.63988398  0.88250991     0.01500
H1312       H  0.98761496  0.63706697  0.90599192     0.09200
H1313       H  0.00898174  0.64086539  0.87303932     0.08200
N1314       N  0.02511133  0.64260246  0.93625098    -0.35600
N1315       N  0.03704987  0.64512788  0.93673012    -0.27800
C1316       C  0.04049401  0.64610353  0.94863406    -0.03000
C1317       C  0.03028825  0.64408989  0.95598674     0.05600
C1318       C  0.02069810  0.64190516  0.94783574     0.03700
H1319       H  0.04978313  0.64805937  0.95171426     0.08800
H1320       H  0.01120470  0.63992333  0.95012599     0.07600
N1321       N  0.01128997  0.33590575  0.91098132    -0.26800
N1322       N  0.01790030  0.33484123  0.90080923    -0.34600
C1323       C  0.01035044  0.33503878  0.89096602     0.01600
C1324       C  0.99835846  0.33629562  0.89508067     0.07600
C1325       C  0.99928325  0.33682787  0.90783619    -0.05500
H1326       H  0.01341648  0.33435872  0.88150282     0.08300
H1327       H  0.99179459  0.33779582  0.91433783     0.09500
Cu1328     Cu  0.03692584  0.33334667  0.90060013     0.44200
Cu1329     Cu  0.01930706  0.33578640  0.92850166     0.42000
Cu1330     Cu  0.05330921  0.33378941  0.92930274     0.43900
N1331       N  0.05596178  0.33280250  0.90185391    -0.34100
N1332       N  0.06210829  0.33319609  0.91238624    -0.28400
C1333       C  0.07428721  0.33298917  0.90999450    -0.04500
C1334       C  0.07579498  0.33237943  0.89732921     0.07700
C1335       C  0.06401184  0.33226067  0.89248480     0.01500
H1336       H  0.08145793  0.33318772  0.91694561     0.09200
H1337       H  0.06146128  0.33190861  0.88283343     0.08200
N1338       N  0.04210062  0.33372324  0.94474201    -0.35600
N1339       N  0.02991560  0.33442273  0.94452839    -0.27800
C1340       C  0.02571030  0.33376463  0.95618461    -0.03000
C1341       C  0.03570070  0.33260533  0.96404452     0.05600
C1342       C  0.04593703  0.33262777  0.95649317     0.03700
H1343       H  0.01607910  0.33401252  0.95873528     0.08800
H1344       H  0.05547927  0.33176461  0.95927907     0.07600
N1345       N  0.93755960  0.97361299  0.35693001    -0.26800
N1346       N  0.92729243  0.98013436  0.35745008    -0.34600
C1347       C  0.91756417  0.97258398  0.35649827     0.01600
C1348       C  0.92182549  0.96063700  0.35532078     0.07600
C1349       C  0.93458252  0.96158124  0.35566260    -0.05500
H1350       H  0.90807637  0.97564485  0.35659470     0.08300
H1351       H  0.94117611  0.95412821  0.35491882     0.09500
Cu1352     Cu  0.92670465  0.99904031  0.35885122     0.44200
Cu1353     Cu  0.95475286  0.98217117  0.35762390     0.42000
Cu1354     Cu  0.95441594  0.01666763  0.35830089     0.43900
N1355       N  0.92684890  0.01800746  0.35863877    -0.34100
N1356       N  0.93698740  0.02474576  0.35844381    -0.28400
C1357       C  0.93377947  0.03676838  0.35806802    -0.04500
C1358       C  0.92100911  0.03748142  0.35794640     0.07700
C1359       C  0.91696495  0.02543479  0.35830716     0.01500
H1360       H  0.94023225  0.04436566  0.35771538     0.09200
H1361       H  0.90750832  0.02226619  0.35825851     0.08200
N1362       N  0.97022208  0.00571803  0.35817989    -0.35600
N1363       N  0.97029885  0.99348712  0.35799161    -0.27800
C1364       C  0.98205273  0.98954263  0.35787948    -0.03000
C1365       C  0.98973099  0.99970196  0.35798730     0.05600
C1366       C  0.98194391  0.00981232  0.35819034     0.03700
H1367       H  0.98480495  0.97994864  0.35766426     0.08800
H1368       H  0.98456836  0.01943955  0.35826617     0.07600
N1369       N  0.93767390  0.97422106  0.65860332    -0.26800
N1370       N  0.92751967  0.98095847  0.65842157    -0.34600
C1371       C  0.91765603  0.97347763  0.65821163     0.01600
C1372       C  0.92174597  0.96139147  0.65821684     0.07600
C1373       C  0.93449982  0.96218552  0.65850204    -0.05500
H1374       H  0.90821169  0.97665214  0.65778758     0.08300
H1375       H  0.94098017  0.95459597  0.65840316     0.09500
Cu1376     Cu  0.92742522  0.00000702  0.65743467     0.44200
Cu1377     Cu  0.95519136  0.98217423  0.65829787     0.42000
Cu1378     Cu  0.95623651  0.01598236  0.65386035     0.43900
N1379       N  0.92872601  0.01883659  0.65465620    -0.34100
N1380       N  0.93922413  0.02483347  0.65317162    -0.28400
C1381       C  0.93673681  0.03687824  0.65124053    -0.04500
C1382       C  0.92405677  0.03843518  0.65152895     0.07700
C1383       C  0.91931364  0.02682483  0.65371233     0.01500
H1384       H  0.94362469  0.04392125  0.64969559     0.09200
H1385       H  0.90968967  0.02432685  0.65446551     0.08200
N1386       N  0.97170085  0.00472496  0.65559159    -0.35600
N1387       N  0.97133095  0.99262879  0.65731045    -0.27800
C1388       C  0.98294769  0.98834700  0.65824694    -0.03000
C1389       C  0.99100074  0.99818609  0.65705087     0.05600
C1390       C  0.98355279  0.00840697  0.65536697     0.03700
H1391       H  0.98532942  0.97876030  0.65968379     0.08800
H1392       H  0.98652091  0.01785458  0.65412635     0.07600
N1393       N  0.39416014  0.90041399  0.97837107    -0.26800
N1394       N  0.39382665  0.88989268  0.98454662    -0.34600
C1395       C  0.39360998  0.88048292  0.97646649     0.01600
C1396       C  0.39377979  0.88524392  0.96459583     0.07600
C1397       C  0.39410881  0.89794115  0.96615578    -0.05500
H1398       H  0.39328434  0.87085894  0.97908205     0.08300
H1399       H  0.39432969  0.90485945  0.95896042     0.09500
Cu1400     Cu  0.39358024  0.88861943  0.00376520     0.44200
Cu1401     Cu  0.39471986  0.91748165  0.98722406     0.42000
Cu1402     Cu  0.39366319  0.91680971  0.02122671     0.43900
N1403       N  0.39337297  0.88910730  0.02301945    -0.34100
N1404       N  0.39334143  0.89947958  0.02943634    -0.28400
C1405       C  0.39318708  0.89674887  0.04156444    -0.04500
C1406       C  0.39313298  0.88404201  0.04286457     0.07700
C1407       C  0.39324701  0.87949605  0.03090659     0.01500
H1408       H  0.39309344  0.90352029  0.04889530     0.09200
H1409       H  0.39319604  0.86991436  0.02812013     0.08200
N1410       N  0.39460763  0.93283039  0.01072645    -0.35600
N1411       N  0.39504057  0.93304492  0.99851918    -0.27800
C1412       C  0.39545996  0.94485141  0.99472546    -0.03000
C1413       C  0.39526551  0.95242229  0.00500444     0.05600
C1414       C  0.39474653  0.94450271  0.01498568     0.03700
H1415       H  0.39573853  0.94768625  0.98516055     0.08800
H1416       H  0.39433900  0.94702618  0.02463363     0.07600
N1417       N  0.65189054  0.89852715  0.02543002    -0.26800
N1418       N  0.65128683  0.88805626  0.01919699    -0.34600
C1419       C  0.65004884  0.87862570  0.02715090     0.01600
C1420       C  0.64986289  0.88334269  0.03897660     0.07600
C1421       C  0.65102345  0.89600152  0.03757346    -0.05500
H1422       H  0.64954345  0.86900970  0.02451288     0.08300
H1423       H  0.65145965  0.90284580  0.04482175     0.09500
Cu1424     Cu  0.65271573  0.88684877  0.00022087     0.44200
Cu1425     Cu  0.65432193  0.91566721  0.01699570     0.42000
Cu1426     Cu  0.65703738  0.91538984  0.98343305     0.43900
N1427       N  0.65471240  0.88766308  0.98127177    -0.34100
N1428       N  0.65616783  0.89801923  0.97497828    -0.28400
C1429       C  0.65710274  0.89521860  0.96288416    -0.04500
C1430       C  0.65627247  0.88250480  0.96160277     0.07700
C1431       C  0.65477890  0.87805353  0.97344085     0.01500
H1432       H  0.65843204  0.90191704  0.95560627     0.09200
H1433       H  0.65379520  0.86850287  0.97618301     0.08200
N1434       N  0.65739044  0.93149894  0.99414531    -0.35600
N1435       N  0.65646397  0.93156953  0.00632329    -0.27800
C1436       C  0.65669848  0.94334678  0.01032868    -0.03000
C1437       C  0.65776466  0.95110319  0.00022604     0.05600
C1438       C  0.65820443  0.94325051  0.99012161     0.03700
H1439       H  0.65590692  0.94607747  0.01989456     0.08800
H1440       H  0.65889295  0.94588011  0.98051989     0.07600
N1441       N  0.05776485  0.33798749  0.10148261    -0.26800
N1442       N  0.05153487  0.33872480  0.11191675    -0.34600
C1443       C  0.05940148  0.34112029  0.12118161     0.01600
C1444       C  0.07114817  0.34186834  0.11637278     0.07600
C1445       C  0.06981674  0.33984338  0.10383711    -0.05500
H1446       H  0.05677017  0.34207674  0.13075686     0.08300
H1447       H  0.07702418  0.33965095  0.09696048     0.09500
Cu1448     Cu  0.03267298  0.33622678  0.11323224     0.44200
Cu1449     Cu  0.04931880  0.33451656  0.08472396     0.42000
Cu1450     Cu  0.01559238  0.33210247  0.08504172     0.43900
N1451       N  0.01371791  0.33413497  0.11259672    -0.34100
N1452       N  0.00736355  0.33288880  0.10225380    -0.28400
C1453       C  0.99527731  0.33229986  0.10496918    -0.04500
C1454       C  0.99401402  0.33315762  0.11763131     0.07700
C1455       C  0.00588524  0.33428202  0.12217561     0.01500
H1456       H  0.98796756  0.33138008  0.09822507     0.09200
H1457       H  0.00864580  0.33538138  0.13170769     0.08200
N1458       N  0.02632028  0.33106212  0.06927972    -0.35600
N1459       N  0.03849346  0.33179545  0.06923198    -0.27800
C1460       C  0.04252418  0.33094270  0.05755875    -0.03000
C1461       C  0.03243099  0.32964645  0.04990426     0.05600
C1462       C  0.02229252  0.32974712  0.05760892     0.03700
H1463       H  0.05209605  0.33149010  0.05483539     0.08800
H1464       H  0.01269741  0.32909479  0.05495571     0.07600
N1465       N  0.05598495  0.64721946  0.09500497    -0.26800
N1466       N  0.04953512  0.64749174  0.10533142    -0.34600
C1467       C  0.05729606  0.64796135  0.11499156     0.01600
C1468       C  0.06924975  0.64795672  0.11058001     0.07600
C1469       C  0.06808974  0.64751770  0.09785380    -0.05500
H1470       H  0.05440656  0.64800786  0.12453568     0.08300
H1471       H  0.07548150  0.64714333  0.09118201     0.09500
Cu1472     Cu  0.03049790  0.64631874  0.10601905     0.44200
Cu1473     Cu  0.04767755  0.64590430  0.07771318     0.42000
Cu1474     Cu  0.01393423  0.64266784  0.07747675     0.43900
N1475       N  0.01159415  0.64383350  0.10504216    -0.34100
N1476       N  0.00544405  0.64243855  0.09459331    -0.28400
C1477       C  0.99339098  0.64097291  0.09714797    -0.04500
C1478       C  0.99194915  0.64145951  0.10982514     0.07700
C1479       C  0.00365875  0.64327272  0.11451935     0.01500
H1480       H  0.98624627  0.63969408  0.09028780     0.09200
H1481       H  0.00623219  0.64416130  0.12413041     0.08200
N1482       N  0.02475639  0.64348717  0.06174480    -0.35600
N1483       N  0.03689548  0.64471867  0.06182278    -0.27800
C1484       C  0.04091745  0.64518395  0.05010183    -0.03000
C1485       C  0.03084833  0.64417795  0.04229608     0.05600
C1486       C  0.02076820  0.64309448  0.04998222     0.03700
H1487       H  0.05047767  0.64619919  0.04748546     0.08800
H1488       H  0.01121447  0.64220003  0.04724163     0.07600
N1489       N  0.12860202  0.01967442  0.36332824    -0.26800
N1490       N  0.13877741  0.01304566  0.36432693    -0.34600
C1491       C  0.14847798  0.02064282  0.36564961     0.01600
C1492       C  0.14422255  0.03265665  0.36544428     0.07600
C1493       C  0.13156310  0.03172422  0.36396370    -0.05500
H1494       H  0.15795190  0.01763346  0.36651908     0.08300
H1495       H  0.12500002  0.03921532  0.36331515     0.09500
Cu1496     Cu  0.13898483  0.99401879  0.36324883     0.44200
Cu1497     Cu  0.11134648  0.01166871  0.36101593     0.42000
Cu1498     Cu  0.11047242  0.97775685  0.35798873     0.43900
N1499       N  0.13785038  0.97517415  0.36066738    -0.34100
N1500       N  0.12751053  0.96905168  0.35864516    -0.28400
C1501       C  0.13021034  0.95701350  0.35702610    -0.04500
C1502       C  0.14285746  0.95559896  0.35805649     0.07700
C1503       C  0.14736807  0.96729073  0.36037389     0.01500
H1504       H  0.12350265  0.94988113  0.35510325     0.09200
H1505       H  0.15689121  0.96995934  0.36163430     0.08200
N1506       N  0.09503806  0.98910452  0.35811967    -0.35600
N1507       N  0.09534663  0.00127176  0.35917996    -0.27800
C1508       C  0.08372930  0.00562117  0.35912523    -0.03000
C1509       C  0.07575560  0.99575035  0.35799923     0.05600
C1510       C  0.08322341  0.98542248  0.35737775     0.03700
H1511       H  0.08127508  0.01526086  0.35996302     0.08800
H1512       H  0.08031955  0.97591318  0.35653617     0.07600
N1513       N  0.12985135  0.02151620  0.66096307    -0.26800
N1514       N  0.14016982  0.01519035  0.66240671    -0.34600
C1515       C  0.14956505  0.02310998  0.66401639     0.01600
C1516       C  0.14496056  0.03499991  0.66354117     0.07600
C1517       C  0.13240677  0.03366711  0.66160446    -0.05500
H1518       H  0.15909034  0.02040666  0.66525552     0.08300
H1519       H  0.12565287  0.04094923  0.66061190     0.09500
Cu1520     Cu  0.14100315  0.99607515  0.66172770     0.44200
Cu1521     Cu  0.11293598  0.01300174  0.65826855     0.42000
Cu1522     Cu  0.11236465  0.97904516  0.65911847     0.43900
N1523       N  0.14012241  0.97698620  0.66054516    -0.34100
N1524       N  0.12975639  0.97061274  0.65969772    -0.28400
C1525       C  0.13257008  0.95848500  0.65916086    -0.04500
C1526       C  0.14530218  0.95724531  0.65966520     0.07700
C1527       C  0.14973956  0.96915776  0.66051520     0.01500
H1528       H  0.12586086  0.95114512  0.65837813     0.09200
H1529       H  0.15929671  0.97195412  0.66108666     0.08200
N1530       N  0.09663090  0.99026758  0.65819260    -0.35600
N1531       N  0.09698486  0.00246489  0.65754318    -0.27800
C1532       C  0.08540450  0.00688249  0.65708030    -0.03000
C1533       C  0.07731500  0.99704657  0.65754711     0.05600
C1534       C  0.08473631  0.98665256  0.65824857     0.03700
H1535       H  0.08307633  0.01658157  0.65671867     0.08800
H1536       H  0.08170904  0.97716181  0.65883904     0.07600
N1537       N  0.38460548  0.08983518  0.97911702    -0.26800
N1538       N  0.38267700  0.10017114  0.98528755    -0.34600
C1539       C  0.38132245  0.10953799  0.97730280     0.01600
C1540       C  0.38254916  0.10495163  0.96551109     0.07600
C1541       C  0.38462033  0.09240650  0.96694560    -0.05500
H1542       H  0.37987868  0.11906131  0.97992639     0.08300
H1543       H  0.38613786  0.08568552  0.95973049     0.09500
Cu1544     Cu  0.38290477  0.10151062  0.00424467     0.44200
Cu1545     Cu  0.38732616  0.07296310  0.98791175     0.42000
Cu1546     Cu  0.38793438  0.07410481  0.02187450     0.43900
N1547       N  0.38467310  0.10149972  0.02317785    -0.34100
N1548       N  0.38646783  0.09142065  0.02980035    -0.28400
C1549       C  0.38725101  0.09455093  0.04179600    -0.04500
C1550       C  0.38590557  0.10722586  0.04266500     0.07700
C1551       C  0.38431821  0.11131644  0.03070802     0.01500
H1552       H  0.38872789  0.08809478  0.04927087     0.09200
H1553       H  0.38297959  0.12074082  0.02768512     0.08200
N1554       N  0.38953706  0.05809333  0.01157637    -0.35600
N1555       N  0.38938866  0.05765671  0.99936917    -0.27800
C1556       C  0.39050619  0.04582838  0.99579132    -0.03000
C1557       C  0.39137634  0.03851328  0.00621266     0.05600
C1558       C  0.39074518  0.04657775  0.01605847     0.03700
H1559       H  0.39053911  0.04276654  0.98629094     0.08800
H1560       H  0.39102097  0.04427755  0.02576832     0.07600
N1561       N  0.65742957  0.09152093  0.97725929    -0.26800
N1562       N  0.65807066  0.10165439  0.98402522    -0.34600
C1563       C  0.65803993  0.11158536  0.97661711     0.01600
C1564       C  0.65731951  0.10764284  0.96451237     0.07600
C1565       C  0.65693328  0.09484391  0.96523941    -0.05500
H1566       H  0.65857893  0.12100493  0.97986798     0.08300
H1567       H  0.65644220  0.08843902  0.95760234     0.09500
Cu1568     Cu  0.65929784  0.10191782  0.00303811     0.44200
Cu1569     Cu  0.65757227  0.07377550  0.98519154     0.42000
Cu1570     Cu  0.66104290  0.07310625  0.01908305     0.43900
N1571       N  0.66159113  0.10067886  0.02191092    -0.34100
N1572       N  0.66230447  0.09012520  0.02798513    -0.28400
C1573       C  0.66431597  0.09255978  0.04002952    -0.04500
C1574       C  0.66494736  0.10525750  0.04148666     0.07700
C1575       C  0.66315936  0.11007332  0.02982773     0.01500
H1576       H  0.66552961  0.08561781  0.04710499     0.09200
H1577       H  0.66323339  0.11971552  0.02722930     0.08200
N1578       N  0.65942162  0.05740014  0.00804229    -0.35600
N1579       N  0.65818692  0.05752835  0.99587518    -0.27800
C1580       C  0.65742945  0.04575730  0.99184846    -0.03000
C1581       C  0.65818428  0.03787236  0.00192152     0.05600
C1582       C  0.65944407  0.04561388  0.01201182     0.03700
H1583       H  0.65638914  0.04311874  0.98227717     0.08800
H1584       H  0.66036821  0.04289622  0.02157441     0.07600
N1585       N  0.55802248  0.87717668  0.59577317    -0.26800
N1586       N  0.55157050  0.87749176  0.60609839    -0.34600
C1587       C  0.55927111  0.87678810  0.61579723     0.01600
C1588       C  0.57118868  0.87596321  0.61144561     0.07600
C1589       C  0.57009067  0.87621649  0.59867989    -0.05500
H1590       H  0.55637990  0.87683408  0.62534470     0.08300
H1591       H  0.57748432  0.87579952  0.59201573     0.09500
Cu1592     Cu  0.53255477  0.87849919  0.60671633     0.44200
Cu1593     Cu  0.54965344  0.87824516  0.57840679     0.42000
Cu1594     Cu  0.51552124  0.87843648  0.57842958     0.43900
N1595       N  0.51352254  0.87798539  0.60597823    -0.34100
N1596       N  0.50710804  0.87770718  0.59560336    -0.28400
C1597       C  0.49500749  0.87716644  0.59835199    -0.04500
C1598       C  0.49384668  0.87716108  0.61108194     0.07700
C1599       C  0.50574800  0.87768471  0.61558595     0.01500
H1600       H  0.48764726  0.87692990  0.59160421     0.09200
H1601       H  0.50857097  0.87783375  0.62516751     0.08200
N1602       N  0.52638623  0.87966301  0.56271236    -0.35600
N1603       N  0.53859599  0.87958457  0.56262510    -0.27800
C1604       C  0.54247136  0.88021960  0.55083870    -0.03000
C1605       C  0.53224890  0.88069808  0.54318634     0.05600
C1606       C  0.52222272  0.88036133  0.55103220     0.03700
H1607       H  0.55203506  0.88012665  0.54803605     0.08800
H1608       H  0.51258205  0.88038757  0.54846378     0.07600
N1609       N  0.56082185  0.13438391  0.60098370    -0.26800
N1610       N  0.55402239  0.13369189  0.61106796    -0.34600
C1611       C  0.56142499  0.13320216  0.62101826     0.01600
C1612       C  0.57352471  0.13363868  0.61707076     0.07600
C1613       C  0.57281338  0.13438299  0.60431167    -0.05500
H1614       H  0.55818890  0.13276953  0.63044121     0.08300
H1615       H  0.58044422  0.13495995  0.59793185     0.09500
Cu1616     Cu  0.53498653  0.13422476  0.61106023     0.44200
Cu1617     Cu  0.55312811  0.13539667  0.58326021     0.42000
Cu1618     Cu  0.51922719  0.13702558  0.58201589     0.43900
N1619       N  0.51617534  0.13679583  0.60957021    -0.34100
N1620       N  0.51020400  0.13783867  0.59897409    -0.28400
C1621       C  0.49814948  0.13976228  0.60134012    -0.04500
C1622       C  0.49658725  0.14001794  0.61403622     0.07700
C1623       C  0.50819023  0.13811321  0.61891671     0.01500
H1624       H  0.49112357  0.14109099  0.59436372     0.09200
H1625       H  0.51068491  0.13779603  0.62858516     0.08200
N1626       N  0.53059024  0.13593187  0.56653658    -0.35600
N1627       N  0.54279179  0.13556091  0.56689022    -0.27800
C1628       C  0.54707599  0.13474762  0.55523612    -0.03000
C1629       C  0.53710452  0.13447623  0.54720386     0.05600
C1630       C  0.52684092  0.13525411  0.55470451     0.03700
H1631       H  0.55672356  0.13410838  0.55282031     0.08800
H1632       H  0.51730095  0.13525246  0.55177402     0.07600
N1633       N  0.62942675  0.47050156  0.86386173    -0.26800
N1634       N  0.63957226  0.47724381  0.86436395    -0.34600
C1635       C  0.64945863  0.46978289  0.86443383     0.01600
C1636       C  0.64544850  0.45768806  0.86399655     0.07600
C1637       C  0.63267300  0.45846135  0.86368578    -0.05500
H1638       H  0.65889356  0.47298226  0.86481688     0.08300
H1639       H  0.62623851  0.45085369  0.86320526     0.09500
Cu1640     Cu  0.63987653  0.49631937  0.86504553     0.44200
Cu1641     Cu  0.61180943  0.47848546  0.86304670     0.42000
Cu1642     Cu  0.61141374  0.51266200  0.86480646     0.43900
N1643       N  0.63885806  0.51533522  0.86636611    -0.34100
N1644       N  0.62837250  0.52153821  0.86638674    -0.28400
C1645       C  0.63087882  0.53368113  0.86752092    -0.04500
C1646       C  0.64356990  0.53509193  0.86826571     0.07700
C1647       C  0.64829053  0.52327826  0.86749388     0.01500
H1648       H  0.62399440  0.54089782  0.86783180     0.09200
H1649       H  0.65790407  0.52062722  0.86777969     0.08200
N1650       N  0.59586371  0.50163278  0.86236585    -0.35600
N1651       N  0.59586520  0.48941951  0.86176565    -0.27800
C1652       C  0.58416448  0.48552721  0.86005841    -0.03000
C1653       C  0.57649070  0.49575038  0.85951325     0.05600
C1654       C  0.58424368  0.50576957  0.86101683     0.03700
H1655       H  0.58144844  0.47596060  0.85922001     0.08800
H1656       H  0.58165135  0.51540649  0.86116410     0.07600
N1657       N  0.62801717  0.47237704  0.14305808    -0.26800
N1658       N  0.63846621  0.47857240  0.14398247    -0.34600
C1659       C  0.64784354  0.47053735  0.14511616     0.01600
C1660       C  0.64307306  0.45872142  0.14479896     0.07600
C1661       C  0.63046855  0.46020677  0.14348201    -0.05500
H1662       H  0.65744269  0.47311375  0.14596015     0.08300
H1663       H  0.62358190  0.45301219  0.14293086     0.09500
Cu1664     Cu  0.63946155  0.49765130  0.14345128     0.44200
Cu1665     Cu  0.61100423  0.48095447  0.14153402     0.42000
Cu1666     Cu  0.61086898  0.51477687  0.14209989     0.43900
N1667       N  0.63853806  0.51673306  0.14285957    -0.34100
N1668       N  0.62815644  0.52311201  0.14234794    -0.28400
C1669       C  0.63089472  0.53524105  0.14197121    -0.04500
C1670       C  0.64359384  0.53649014  0.14230804     0.07700
C1671       C  0.64811898  0.52457391  0.14287062     0.01500
H1672       H  0.62415206  0.54258666  0.14151898     0.09200
H1673       H  0.65768033  0.52175939  0.14319013     0.08200
N1674       N  0.59507279  0.50388041  0.14140917    -0.35600
N1675       N  0.59517483  0.49167289  0.14107597    -0.27800
C1676       C  0.58349830  0.48752553  0.14070856    -0.03000
C1677       C  0.57566513  0.49759110  0.14083249     0.05600
C1678       C  0.58329835  0.50780018  0.14127192     0.03700
H1679       H  0.58093739  0.47788370  0.14049177     0.08800
H1680       H  0.58050376  0.51738031  0.14154858     0.07600
N1681       N  0.87808441  0.59311077  0.52537401    -0.26800
N1682       N  0.87890195  0.60345101  0.51897566    -0.34600
C1683       C  0.87941458  0.61306470  0.52676646     0.01600
C1684       C  0.87889724  0.60860076  0.53868638     0.07600
C1685       C  0.87808417  0.59588456  0.53750122    -0.05500
H1686       H  0.87998587  0.62262524  0.52394001     0.08300
H1687       H  0.87736368  0.58917720  0.54485845     0.09500
Cu1688     Cu  0.87899585  0.60402692  0.49995406     0.44200
Cu1689     Cu  0.87671156  0.57600673  0.51676105     0.42000
Cu1690     Cu  0.87693976  0.57597746  0.48241686     0.43900
N1691       N  0.87913562  0.60354062  0.48093332    -0.34100
N1692       N  0.87841056  0.59336797  0.47425378    -0.28400
C1693       C  0.87873257  0.59650093  0.46219740    -0.04500
C1694       C  0.87968438  0.60924740  0.46137128     0.07700
C1695       C  0.87991718  0.61334839  0.47343057     0.01500
H1696       H  0.87822179  0.59001905  0.45462472     0.09200
H1697       H  0.88054179  0.62279177  0.47659046     0.08200
N1698       N  0.87596139  0.56024417  0.49351189    -0.35600
N1699       N  0.87586459  0.56029127  0.50573894    -0.27800
C1700       C  0.87558627  0.54856527  0.50982433    -0.03000
C1701       C  0.87553484  0.54076368  0.49974643     0.05600
C1702       C  0.87574988  0.54846796  0.48955558     0.03700
H1703       H  0.87565415  0.54591625  0.51945055     0.08800
H1704       H  0.87597127  0.54573966  0.47996062     0.07600
N1705       N  0.18630198  0.59044653  0.52600248    -0.26800
N1706       N  0.18761241  0.60064968  0.51944026    -0.34600
C1707       C  0.18789567  0.61043365  0.52705702     0.01600
C1708       C  0.18663336  0.60626545  0.53902599     0.07600
C1709       C  0.18564287  0.59352835  0.53804166    -0.05500
H1710       H  0.18877312  0.61991962  0.52406561     0.08300
H1711       H  0.18451198  0.58699251  0.54549928     0.09500
Cu1712     Cu  0.18830103  0.60101582  0.50038204     0.44200
Cu1713     Cu  0.18536026  0.57292349  0.51791772     0.42000
Cu1714     Cu  0.18553676  0.57238929  0.48395573     0.43900
N1715       N  0.18733759  0.59990125  0.48136453    -0.34100
N1716       N  0.18624399  0.58942939  0.47521701    -0.28400
C1717       C  0.18536388  0.59196216  0.46307419    -0.04500
C1718       C  0.18591804  0.60464897  0.46159440     0.07700
C1719       C  0.18718989  0.60936021  0.47335842     0.01500
H1720       H  0.18426370  0.58509783  0.45591357     0.09200
H1721       H  0.18777950  0.61898455  0.47594433     0.08200
N1722       N  0.18448068  0.55675417  0.49499864    -0.35600
N1723       N  0.18444176  0.55685760  0.50721728    -0.27800
C1724       C  0.18359375  0.54513685  0.51129729    -0.03000
C1725       C  0.18304390  0.53733308  0.50119245     0.05600
C1726       C  0.18363458  0.54502266  0.49102426     0.03700
H1727       H  0.18334285  0.54249122  0.52092000     0.08800
H1728       H  0.18344609  0.54232474  0.48141849     0.07600
C1729       C  0.65774498  0.98300343  0.00682530     0.30300
C1730       C  0.65770189  0.99361885  0.01430451    -0.36000
C1731       C  0.65769309  0.00503020  0.00809760     0.16300
C1732       C  0.65765859  0.00595233  0.99540292     0.22100
C1733       C  0.65770654  0.99533942  0.98793273    -0.34200
C1734       C  0.65778719  0.98393460  0.99413284     0.16200
O1735       O  0.65777475  0.97140989  0.01066458    -0.26200
C1736       C  0.65787928  0.96479390  0.00029173     0.06000
C1737       C  0.65790834  0.97213138  0.98972812    -0.31100
O1738       O  0.65772868  0.01753642  0.99153643    -0.22900
C1739       C  0.65785895  0.02417467  0.00188678    -0.02900
C1740       C  0.65783273  0.01684829  0.01247419    -0.17300
H1741       H  0.65772529  0.99302479  0.02427234     0.20700
H1742       H  0.65773793  0.99593195  0.97796569     0.19100
H1743       H  0.65793381  0.96920283  0.98018507     0.19000
H1744       H  0.65795397  0.01979177  0.02201270     0.14900
C1745       C  0.39457368  0.98411702  0.01179950     0.30300
C1746       C  0.39417227  0.99472595  0.01924991    -0.36000
C1747       C  0.39355171  0.00605373  0.01296059     0.16300
C1748       C  0.39332966  0.00684965  0.00024830     0.22100
C1749       C  0.39375305  0.99628422  0.99283808    -0.34200
C1750       C  0.39439411  0.98500591  0.99909852     0.16200
O1751       O  0.39500000  0.97255283  0.01563660    -0.26200
C1752       C  0.39512140  0.96600811  0.00523021     0.06000
C1753       C  0.39478004  0.97329188  0.99467951    -0.31100
O1754       O  0.39260549  0.01830249  0.99626205    -0.22900
C1755       C  0.39236809  0.02498941  0.00652833    -0.10100
C1756       C  0.39294123  0.01787552  0.01722662    -0.17300
H1757       H  0.39427217  0.99418629  0.02922068     0.20700
H1758       H  0.39354095  0.99682053  0.98286869     0.19100
H1759       H  0.39467455  0.97038919  0.98512926     0.19000
H1760       H  0.39283725  0.02094797  0.02672466     0.14900
C1761       C  0.02291784  0.00383641  0.65674738     0.30300
C1762       C  0.03373472  0.01086263  0.65554710    -0.36000
C1763       C  0.04488874  0.00436295  0.65671749     0.16300
C1764       C  0.04537205  0.99182764  0.65891222     0.22100
C1765       C  0.03456646  0.98483094  0.66018141    -0.34200
C1766       C  0.02342812  0.99131441  0.65899674     0.16200
O1767       O  0.01148939  0.00795009  0.65580754    -0.26200
C1768       C  0.00459576  0.99791771  0.65747123     0.06000
C1769       C  0.01154560  0.98731278  0.65951053    -0.31100
O1770       O  0.05677035  0.98759028  0.65948156    -0.22900
C1771       C  0.06371490  0.99754174  0.65766191    -0.02900
C1772       C  0.05680870  0.00825068  0.65591345    -0.17300
H1773       H  0.03347464  0.02067927  0.65373971     0.20700
H1774       H  0.03482486  0.97499483  0.66187406     0.19100
H1775       H  0.00832467  0.97799609  0.66106808     0.19000
H1776       H  0.06008201  0.01752190  0.65419645     0.14900
C1777       C  0.04431919  0.00331641  0.35790605     0.30300
C1778       C  0.03397643  0.01110767  0.35826567    -0.36000
C1779       C  0.02245538  0.00522793  0.35791188     0.16300
C1780       C  0.02122189  0.99257080  0.35725261     0.22100
C1781       C  0.03154801  0.98479889  0.35684645    -0.34200
C1782       C  0.04304499  0.99066776  0.35720135     0.16200
O1783       O  0.05596378  0.00679533  0.35825752    -0.26200
C1784       C  0.06220843  0.99623111  0.35775022     0.06000
C1785       C  0.05464376  0.98589731  0.35707635    -0.31100
O1786       O  0.00961565  0.98901140  0.35717337    -0.22900
C1787       C  0.00329337  0.99950994  0.35777608    -0.02900
C1788       C  0.01079626  0.00992103  0.35823705    -0.17300
H1789       H  0.03485142  0.02103473  0.35884401     0.20700
H1790       H  0.03067506  0.97486680  0.35635415     0.19100
H1791       H  0.05728960  0.97628048  0.35663044     0.19000
H1792       H  0.00807111  0.01950904  0.35880968     0.14900
C1793       C  0.03950113  0.32917792  0.01845762     0.30300
C1794       C  0.04719224  0.32967868  0.00809834    -0.36000
C1795       C  0.04120969  0.33010619  0.99663563     0.16300
C1796       C  0.02854010  0.33003242  0.99543986     0.22100
C1797       C  0.02084878  0.32942062  0.00580357    -0.34200
C1798       C  0.02683106  0.32900789  0.01727226     0.16200
O1799       O  0.04311966  0.32922016  0.03006071    -0.26200
C1800       C  0.03263836  0.32904699  0.03638864     0.06000
C1801       C  0.02219599  0.32885865  0.02892614    -0.31100
O1802       O  0.02492097  0.33085193  0.98385141    -0.22900
C1803       C  0.03540903  0.33142881  0.97754902    -0.02900
C1804       C  0.04584422  0.33097465  0.98502154    -0.17300
H1805       H  0.05713029  0.32993006  0.00892846     0.20700
H1806       H  0.01090698  0.32946776  0.00498974     0.19100
H1807       H  0.01261459  0.32893372  0.03167352     0.19000
H1808       H  0.05542882  0.33140073  0.98231808     0.14900
C1809       C  0.03596840  0.64558328  0.98783919     0.30300
C1810       C  0.04313606  0.64713654  0.99850729    -0.36000
C1811       C  0.03694817  0.64578359  0.00975822     0.16300
C1812       C  0.02453379  0.64313192  0.01050830     0.22100
C1813       C  0.01734196  0.64157074  0.99981739    -0.34200
C1814       C  0.02355646  0.64289041  0.98853383     0.16200
O1815       O  0.03992681  0.64637531  0.97637686    -0.26200
C1816       C  0.02993955  0.64416228  0.96958814     0.06000
C1817       C  0.01946674  0.64192558  0.97665974    -0.31100
O1818       O  0.02069116  0.64225371  0.02202659    -0.22900
C1819       C  0.03080219  0.64432741  0.02870864    -0.02900
C1820       C  0.04117828  0.64657983  0.02155296    -0.17300
H1821       H  0.05288119  0.64921193  0.99806424     0.20700
H1822       H  0.00760818  0.63944264  0.00026417     0.19100
H1823       H  0.01021817  0.63986499  0.97352139     0.19000
H1824       H  0.05048568  0.64852390  0.02458846     0.14900
C1825       C  0.54464741  0.49002863  0.85663024     0.30300
C1826       C  0.53381324  0.48292455  0.85652616    -0.36000
C1827       C  0.52268918  0.48950652  0.85554437     0.16300
C1828       C  0.52223045  0.50219940  0.85464921     0.22100
C1829       C  0.53306162  0.50929545  0.85467033    -0.34200
C1830       C  0.54417701  0.50272097  0.85573924     0.16200
O1831       O  0.55602845  0.48583595  0.85790432    -0.26200
C1832       C  0.56294920  0.49598836  0.85787226     0.06000
C1833       C  0.55604543  0.50675026  0.85652044    -0.31100
O1834       O  0.51082433  0.50646003  0.85418945    -0.22900
C1835       C  0.50386368  0.49636119  0.85481653    -0.02900
C1836       C  0.51076728  0.48554845  0.85563475    -0.17300
H1837       H  0.53402717  0.47297857  0.85737604     0.20700
H1838       H  0.53283047  0.51926252  0.85412435     0.19100
H1839       H  0.55927464  0.51619212  0.85632530     0.19000
H1840       H  0.50748890  0.47615247  0.85639554     0.14900
C1841       C  0.52655636  0.87989533  0.48866849     0.30300
C1842       C  0.51925863  0.88039121  0.49933502    -0.36000
C1843       C  0.52564425  0.88058656  0.51060899     0.16300
C1844       C  0.53834031  0.88028139  0.51136147     0.22100
C1845       C  0.54564182  0.87978463  0.50068996    -0.34200
C1846       C  0.53925446  0.87962008  0.48940699     0.16200
O1847       O  0.52251593  0.87978761  0.47717388    -0.26200
C1848       C  0.53275421  0.87946981  0.47043588     0.06000
C1849       C  0.54344972  0.87932973  0.47756596    -0.31100
O1850       O  0.54236423  0.88041883  0.52286733    -0.22900
C1851       C  0.53210962  0.88082059  0.52957843    -0.02900
C1852       C  0.52143169  0.88097022  0.52242817    -0.17300
H1853       H  0.50929461  0.88063385  0.49887499     0.20700
H1854       H  0.55560582  0.87955763  0.50115117     0.19100
H1855       H  0.55292749  0.87915177  0.47448304     0.19000
H1856       H  0.51194554  0.88119264  0.52548269     0.14900
C1857       C  0.87770326  0.48614428  0.49583225     0.30300
C1858       C  0.87716005  0.49657028  0.48815007    -0.36000
C1859       C  0.87658270  0.50802948  0.49415022     0.16300
C1860       C  0.87654305  0.50916183  0.50683206     0.22100
C1861       C  0.87707091  0.49873869  0.51451163    -0.34200
C1862       C  0.87764889  0.48728337  0.50851303     0.16200
O1863       O  0.87832376  0.47453829  0.49220235    -0.26200
C1864       C  0.87866606  0.46815335  0.50269783     0.06000
C1865       C  0.87827112  0.47561139  0.51313970    -0.31100
O1866       O  0.87607837  0.52076725  0.51047290    -0.22900
C1867       C  0.87581104  0.52716711  0.49998735    -0.02900
C1868       C  0.87609361  0.51971713  0.48953433    -0.17300
H1869       H  0.87721771  0.49580368  0.47819578     0.20700
H1870       H  0.87707006  0.49950853  0.52446590     0.19100
H1871       H  0.87842064  0.47284730  0.52273373     0.19000
H1872       H  0.87604847  0.52250030  0.47994477     0.14900
C1873       C  0.18101285  0.50568963  0.50798599     0.30300
C1874       C  0.18069655  0.49519917  0.51557614    -0.36000
C1875       C  0.17997005  0.48379304  0.50950123     0.16300
C1876       C  0.17951655  0.48274449  0.49682099     0.22100
C1877       C  0.17981035  0.49324992  0.48921434    -0.34200
C1878       C  0.18059832  0.50467069  0.49529994     0.16200
O1879       O  0.18187312  0.51724457  0.51173078    -0.26200
C1880       C  0.18203299  0.52374965  0.50131424     0.06000
C1881       C  0.18125759  0.51640166  0.49079341    -0.31100
O1882       O  0.17902521  0.47113828  0.49312673    -0.22900
C1883       C  0.17920663  0.46467408  0.50358770    -0.02900
C1884       C  0.17977810  0.47208288  0.51405581    -0.17300
H1885       H  0.18110349  0.49587745  0.52552968     0.20700
H1886       H  0.17955492  0.49256383  0.47925615     0.19100
H1887       H  0.18124602  0.51926906  0.48122824     0.19000
H1888       H  0.18010465  0.46925851  0.52362849     0.14900
C1889       C  0.54399516  0.50405548  0.14114862     0.30300
C1890       C  0.53345408  0.51154130  0.14153965    -0.36000
C1891       C  0.52211440  0.50534280  0.14152525     0.16300
C1892       C  0.52118202  0.49264956  0.14113799     0.22100
C1893       C  0.53173504  0.48515184  0.14075274    -0.34200
C1894       C  0.54308764  0.49135833  0.14077451     0.16200
O1895       O  0.55551755  0.50791606  0.14116347    -0.26200
C1896       C  0.56209739  0.49756268  0.14079495     0.06000
C1897       C  0.55485120  0.48696611  0.14053281    -0.31100
O1898       O  0.50963389  0.48882906  0.14121379    -0.22900
C1899       C  0.50309385  0.49921839  0.14166544    -0.02900
C1900       C  0.51038383  0.50977428  0.14188354    -0.17300
H1901       H  0.53405355  0.52150231  0.14186019     0.20700
H1902       H  0.53113756  0.47518918  0.14047694     0.19100
H1903       H  0.55780749  0.47743258  0.14026448     0.19000
H1904       H  0.50747701  0.51931885  0.14225697     0.14900
C1905       C  0.53048799  0.13096539  0.51559451     0.30300
C1906       C  0.52290053  0.12934349  0.50518869    -0.36000
C1907       C  0.52864421  0.13057630  0.49365334     0.16300
C1908       C  0.54102678  0.13317656  0.49243358     0.22100
C1909       C  0.54866914  0.13457298  0.50284801    -0.34200
C1910       C  0.54291129  0.13338115  0.51439437     0.16200
O1911       O  0.52687131  0.13093628  0.52721761    -0.26200
C1912       C  0.53711143  0.13327781  0.53360428     0.06000
C1913       C  0.54740727  0.13481644  0.52609869    -0.31100
O1914       O  0.54430171  0.13472335  0.48080132    -0.22900
C1915       C  0.53389169  0.13307682  0.47445506    -0.02900
C1916       C  0.52386303  0.13038533  0.48198884    -0.17300
H1917       H  0.51311577  0.12761510  0.50603124     0.20700
H1918       H  0.55835276  0.13680007  0.50200728     0.19100
H1919       H  0.55674072  0.13705036  0.52884043     0.19000
H1920       H  0.51435490  0.12896394  0.47930890     0.14900
C1921       C  0.17504489  0.35955990  0.44327118     0.30300
C1922       C  0.17575657  0.34752888  0.43856699    -0.36000
C1923       C  0.17282656  0.34615576  0.42603957     0.16300
C1924       C  0.16945655  0.35593237  0.41859886     0.22100
C1925       C  0.16872149  0.36799062  0.42332022    -0.34200
C1926       C  0.17164502  0.36937047  0.43588465     0.16200
O1927       O  0.17740690  0.36290859  0.45472535    -0.26200
C1928       C  0.17550984  0.37503907  0.45472827     0.06000
C1929       C  0.17190960  0.37958354  0.44324529    -0.31100
O1930       O  0.16733267  0.35251869  0.40708577    -0.22900
C1931       C  0.16933895  0.34039084  0.40719112    -0.02900
C1932       C  0.17275669  0.33594529  0.41875209    -0.17300
H1933       H  0.17844554  0.33978026  0.44427268     0.20700
H1934       H  0.16611321  0.37575020  0.41759419     0.19100
H1935       H  0.16978335  0.38900514  0.44070291     0.19000
H1936       H  0.17504886  0.32658631  0.42138013     0.14900
C1937       C  0.11891990  0.34749692  0.14244626     0.30300
C1938       C  0.11452895  0.34562527  0.13037578    -0.36000
C1939       C  0.10165335  0.34530318  0.12900722     0.16300
C1940       C  0.09372372  0.34670915  0.13885090     0.22100
C1941       C  0.09809906  0.34856538  0.15085643    -0.34200
C1942       C  0.11090685  0.34887649  0.15221816     0.16200
O1943       O  0.13056567  0.34821190  0.14591799    -0.26200
C1944       C  0.12993013  0.35005167  0.15805266     0.06000
C1945       C  0.11793283  0.35051032  0.16246313    -0.31100
O1946       O  0.08207598  0.34586410  0.13561441    -0.22900
C1947       C  0.08246430  0.34389621  0.12353094    -0.02900
C1948       C  0.09440526  0.34349149  0.11885572    -0.17300
H1949       H  0.12069767  0.34447855  0.12262895     0.20700
H1950       H  0.09193024  0.34963682  0.15861470     0.19100
H1951       H  0.11482267  0.35194747  0.17183165     0.19000
H1952       H  0.09730649  0.34186727  0.10944923     0.14900
C1953       C  0.16856487  0.34715868  0.26761099     0.30300
C1954       C  0.16198039  0.34740656  0.27876086    -0.36000
C1955       C  0.16746248  0.34121220  0.28875940     0.16300
C1956       C  0.17852183  0.33499239  0.28775252     0.22100
C1957       C  0.18522438  0.33497961  0.27671125    -0.34200
C1958       C  0.17986513  0.34135925  0.26681320     0.16200
O1959       O  0.16503570  0.35201540  0.25699052    -0.26200
C1960       C  0.17432170  0.34947060  0.24939909     0.06000
C1961       C  0.18382063  0.34293185  0.25502833    -0.31100
O1962       O  0.18158775  0.32917402  0.29798458    -0.22900
C1963       C  0.17252026  0.33189773  0.30575663    -0.02900
C1964       C  0.16350517  0.33943759  0.30057526    -0.17300
H1965       H  0.15314837  0.35197656  0.27954570     0.20700
H1966       H  0.19393625  0.33019290  0.27585344     0.19100
H1967       H  0.19225376  0.33954306  0.25092560     0.19000
H1968       H  0.15505617  0.34268775  0.30475112     0.14900
C1969       C  0.16728354  0.05517987  0.36809619     0.30300
C1970       C  0.17934921  0.05965760  0.36942772    -0.36000
C1971       C  0.18070519  0.07252238  0.36898088     0.16300
C1972       C  0.17086645  0.08045265  0.36741389     0.22100
C1973       C  0.15879407  0.07596848  0.36609025    -0.34200
C1974       C  0.15744176  0.06309616  0.36648272     0.16200
O1975       O  0.16393727  0.04348504  0.36800357    -0.26200
C1976       C  0.15178706  0.04390023  0.36632223     0.06000
C1977       C  0.14723262  0.05586507  0.36531398    -0.31100
O1978       O  0.17428652  0.09213294  0.36705094    -0.22900
C1979       C  0.18648483  0.09167543  0.36833687    -0.02900
C1980       C  0.19098133  0.07970813  0.36958611    -0.17300
H1981       H  0.18714867  0.05353344  0.37059144     0.20700
H1982       H  0.15101840  0.08208083  0.36472549     0.19100
H1983       H  0.13781106  0.05880087  0.36382407     0.19000
H1984       H  0.20044844  0.07672970  0.37063550     0.14900
C1985       C  0.19134765  0.23354352  0.35560893     0.30300
C1986       C  0.19636948  0.22411918  0.34838636    -0.36000
C1987       C  0.19657359  0.21238951  0.35374536     0.16300
C1988       C  0.19197212  0.20996498  0.36535810     0.22100
C1989       C  0.18700904  0.21947003  0.37266862    -0.34200
C1990       C  0.18696305  0.23131436  0.36734785     0.16200
O1991       O  0.19035619  0.24518317  0.35234522    -0.26200
C1992       C  0.18537004  0.25060077  0.36212277     0.06000
C1993       C  0.18306786  0.24245083  0.37179456    -0.31100
O1994       O  0.19312582  0.19821064  0.36844160    -0.22900
C1995       C  0.19866776  0.19318190  0.35870389    -0.02900
C1996       C  0.20105544  0.20158265  0.34933875    -0.17300
H1997       H  0.19996575  0.22584049  0.33923950     0.20700
H1998       H  0.18352316  0.21777348  0.38186088     0.19100
H1999       H  0.17904085  0.24442166  0.38070404     0.19000
H2000       H  0.20547224  0.19994450  0.34054529     0.14900
C2001       C  0.45108420  0.14450753  0.35819371     0.30300
C2002       C  0.46374120  0.14702755  0.35865876    -0.36000
C2003       C  0.46943053  0.14546964  0.37016779     0.16300
C2004       C  0.46315464  0.14167236  0.38055430     0.22100
C2005       C  0.45043597  0.13919391  0.38009504    -0.34200
C2006       C  0.44470899  0.14076719  0.36854427     0.16200
O2007       O  0.44400582  0.14528624  0.34833634    -0.26200
C2008       C  0.43290083  0.14203440  0.35236263     0.06000
C2009       C  0.43276203  0.13912227  0.36488380    -0.31100
O2010       O  0.47043728  0.14065773  0.39030719    -0.22900
C2011       C  0.48149489  0.14387445  0.38606756    -0.02900
C2012       C  0.48137544  0.14697850  0.37360628    -0.17300
H2013       H  0.46881679  0.14994669  0.35058399     0.20700
H2014       H  0.44538006  0.13619335  0.38814902     0.19100
H2015       H  0.42502807  0.13618801  0.37044333     0.19000
H2016       H  0.48899964  0.14981940  0.36785025     0.14900
C2017       C  0.31571266  0.13148466  0.33866106     0.30300
C2018       C  0.30648016  0.12659590  0.34630108    -0.36000
C2019       C  0.29438022  0.13045530  0.34373726     0.16300
C2020       C  0.29158842  0.13872253  0.33444616     0.22100
C2021       C  0.30077288  0.14346626  0.32670737    -0.34200
C2022       C  0.31281752  0.13944238  0.32913334     0.16200
O2023       O  0.32765494  0.12915791  0.33936246    -0.26200
C2024       C  0.33239539  0.13557453  0.33003554     0.06000
C2025       C  0.32358710  0.14208472  0.32333656    -0.31100
O2026       O  0.27972993  0.14131150  0.33386978    -0.22900
C2027       C  0.27481600  0.13447282  0.34278428    -0.02900
C2028       C  0.28347531  0.12748798  0.34920641    -0.17300
H2029       H  0.30857430  0.12021343  0.35369596     0.20700
H2030       H  0.29867125  0.14982523  0.31929180     0.19100
H2031       H  0.32495846  0.14798717  0.31539894     0.19000
H2032       H  0.28197232  0.12131369  0.35690671     0.14900
C2033       C  0.38549701  0.13085804  0.06459596     0.30300
C2034       C  0.38493832  0.14310014  0.06869879    -0.36000
C2035       C  0.38568822  0.14480465  0.08148143     0.16300
C2036       C  0.38690185  0.13513884  0.08969034     0.22100
C2037       C  0.38740057  0.12285571  0.08558005    -0.34200
C2038       C  0.38667792  0.12114805  0.07276198     0.16200
O2039       O  0.38509166  0.12721409  0.05302519    -0.26200
C2040       C  0.38603558  0.11500722  0.05374408     0.06000
C2041       C  0.38705331  0.11068034  0.06579629    -0.31100
O2042       O  0.38774337  0.13892465  0.10122950    -0.22900
C2043       C  0.38703448  0.15116414  0.10037159    -0.02900
C2044       C  0.38571302  0.15532846  0.08830501    -0.17300
H2045       H  0.38408485  0.15076747  0.06235437     0.20700
H2046       H  0.38840685  0.11519570  0.09191043     0.19100
H2047       H  0.38793763  0.10124459  0.06894822     0.19000
H2048       H  0.38508274  0.16473598  0.08501365     0.14900
C2049       C  0.39698802  0.15047765  0.23834262     0.30300
C2050       C  0.39350309  0.14734284  0.22625904    -0.36000
C2051       C  0.39854537  0.15461590  0.21682395     0.16300
C2052       C  0.40629044  0.16444924  0.21914085     0.22100
C2053       C  0.40999914  0.16740654  0.23120342    -0.34200
C2054       C  0.40513077  0.15999358  0.24062275     0.16200
O2055       O  0.39296623  0.14526118  0.24856666    -0.26200
C2056       C  0.39879902  0.15134695  0.25750032     0.06000
C2057       C  0.40654754  0.16056883  0.25311199    -0.31100
O2058       O  0.40906925  0.17064460  0.20904773    -0.22900
C2059       C  0.40321658  0.16456967  0.20011877    -0.02900
C2060       C  0.39661431  0.15443957  0.20439388    -0.17300
H2061       H  0.38710674  0.13991967  0.22436563     0.20700
H2062       H  0.41603925  0.17511462  0.23312952     0.19100
H2063       H  0.41205453  0.16702153  0.25838145     0.19000
H2064       H  0.39068200  0.14830982  0.19920096     0.14900
C2065       C  0.39599135  0.41209229  0.15029677     0.30300
C2066       C  0.40806078  0.41665564  0.14889582    -0.36000
C2067       C  0.40927449  0.42958176  0.14851732     0.16300
C2068       C  0.39929996  0.43742397  0.14950836     0.22100
C2069       C  0.38730377  0.43288110  0.15099189    -0.34200
C2070       C  0.38609471  0.42001731  0.15134015     0.16200
O2071       O  0.39258980  0.40036811  0.15040888    -0.26200
C2072       C  0.38035943  0.40084129  0.15156930     0.06000
C2073       C  0.37586112  0.41284166  0.15224756    -0.31100
O2074       O  0.40243147  0.44914405  0.14879002    -0.22900
C2075       C  0.41459171  0.44889912  0.14730470    -0.02900
C2076       C  0.41938544  0.43696320  0.14706224    -0.17300
H2077       H  0.41591655  0.41056848  0.14799284     0.20700
H2078       H  0.37942475  0.43896824  0.15168307     0.19100
H2079       H  0.36638615  0.41587098  0.15297266     0.19000
H2080       H  0.42889298  0.43414974  0.14598070     0.14900
C2081       C  0.37520273  0.28413115  0.14526598     0.30300
C2082       C  0.38328973  0.27558577  0.15073148    -0.36000
C2083       C  0.38205129  0.26329031  0.14682869     0.16300
C2084       C  0.37359352  0.25969370  0.13800101     0.22100
C2085       C  0.36540199  0.26819482  0.13267713    -0.34200
C2086       C  0.36650231  0.28043243  0.13672322     0.16200
O2087       O  0.37465247  0.29608112  0.14759170    -0.26200
C2088       C  0.36536281  0.30002247  0.14056878     0.06000
C2089       C  0.35992640  0.29068273  0.13365643    -0.31100
O2090       O  0.37417028  0.24778773  0.13555119    -0.22900
C2091       C  0.38299621  0.24365163  0.14302694    -0.02900
C2092       C  0.38818839  0.25286895  0.15031069    -0.17300
H2093       H  0.39002100  0.27831604  0.15758944     0.20700
H2094       H  0.35859903  0.26544604  0.12589746     0.19100
H2095       H  0.35225858  0.29137009  0.12728486     0.19000
H2096       H  0.39549669  0.25202097  0.15707358     0.14900
C2097       C  0.27083330  0.36490385  0.16040633     0.30300
C2098       C  0.26220453  0.36972408  0.16869852    -0.36000
C2099       C  0.25009584  0.36546810  0.16734749     0.16300
C2100       C  0.24658255  0.35720439  0.15831391     0.22100
C2101       C  0.25525551  0.35230176  0.15003470    -0.34200
C2102       C  0.26746303  0.35640141  0.15153700     0.16200
O2103       O  0.28274289  0.36728860  0.16036425    -0.26200
C2104       C  0.28713940  0.36011784  0.15145425     0.06000
C2105       C  0.27806338  0.35311248  0.14564173    -0.31100
O2106       O  0.23475291  0.35435699  0.15895375    -0.22900
C2107       C  0.23075730  0.36078803  0.16862099    -0.02900
C2108       C  0.23990534  0.36782247  0.17418837    -0.17300
H2109       H  0.26480810  0.37614302  0.17589078     0.20700
H2110       H  0.25272442  0.34557404  0.14310497     0.19100
H2111       H  0.27915580  0.34646246  0.13827965     0.19000
H2112       H  0.23917127  0.37370166  0.18222303     0.14900
C2113       C  0.89199161  0.08390501  0.35741470     0.30300
C2114       C  0.90428521  0.08004436  0.35877999    -0.36000
C2115       C  0.90637517  0.06729406  0.35785507     0.16300
C2116       C  0.89699118  0.05894461  0.35579629     0.22100
C2117       C  0.88473161  0.06279611  0.35438645    -0.34200
C2118       C  0.88265723  0.07552170  0.35528008     0.16200
O2119       O  0.88792315  0.09537256  0.35790659    -0.26200
C2120       C  0.87583364  0.09429976  0.35605408     0.06000
C2121       C  0.87204671  0.08215368  0.35437724    -0.31100
O2122       O  0.90094302  0.04746493  0.35550067    -0.22900
C2123       C  0.91303155  0.04843226  0.35732642    -0.02900
C2124       C  0.91696656  0.06055885  0.35881448    -0.17300
H2125       H  0.91168897  0.08652036  0.36046380     0.20700
H2126       H  0.87732038  0.05631247  0.35275578     0.19100
H2127       H  0.86283680  0.07870743  0.35268669     0.19000
H2128       H  0.92621173  0.06388889  0.36054615     0.14900
C2129       C  0.87976778  0.37351349  0.43515730     0.30300
C2130       C  0.88032112  0.37349550  0.42219237    -0.36000
C2131       C  0.87921723  0.36190400  0.41647162     0.16300
C2132       C  0.87764035  0.35112310  0.42306919     0.22100
C2133       C  0.87712892  0.35113973  0.43597631    -0.34200
C2134       C  0.87826799  0.36267464  0.44166760     0.16200
O2135       O  0.88056950  0.38324643  0.44246451    -0.26200
C2136       C  0.87960743  0.37851497  0.45377331     0.06000
C2137       C  0.87816918  0.36576755  0.45380007    -0.31100
O2138       O  0.87677246  0.34133380  0.41593237    -0.22900
C2139       C  0.87783199  0.34583579  0.40457504    -0.02900
C2140       C  0.87938977  0.35859519  0.40432113    -0.17300
H2141       H  0.88152949  0.38190474  0.41694570     0.20700
H2142       H  0.87593182  0.34272806  0.44122414     0.19100
H2143       H  0.87714625  0.35964362  0.46161861     0.19000
H2144       H  0.88047975  0.36454076  0.39637414     0.14900
C2145       C  0.85757189  0.21365853  0.36738566     0.30300
C2146       C  0.85428795  0.22543620  0.37166119    -0.36000
C2147       C  0.86249756  0.23501186  0.36880144     0.16300
C2148       C  0.87308235  0.23314799  0.36201029     0.22100
C2149       C  0.87645731  0.22134732  0.35790443    -0.34200
C2150       C  0.86835086  0.21174829  0.36092504     0.16200
O2151       O  0.85114714  0.20343596  0.36879999    -0.26200
C2152       C  0.85797680  0.19484288  0.36331665     0.06000
C2153       C  0.86881220  0.19946744  0.35828921    -0.31100
O2154       O  0.87909679  0.24348320  0.35985320    -0.22900
C2155       C  0.87240265  0.25205726  0.36551052    -0.02900
C2156       C  0.86199937  0.24732873  0.37130765    -0.17300
H2157       H  0.84587915  0.22703358  0.37676694     0.20700
H2158       H  0.88476055  0.21978325  0.35261976     0.19100
H2159       H  0.87585753  0.19454833  0.35322982     0.19000
H2160       H  0.85490230  0.25230256  0.37624192     0.14900
C2161       C  0.95072046  0.33432726  0.15078712     0.30300
C2162       C  0.96360110  0.33369910  0.15140990    -0.36000
C2163       C  0.96977266  0.33359862  0.14008734     0.16300
C2164       C  0.96371998  0.33405327  0.12888160     0.22100
C2165       C  0.95079534  0.33472643  0.12825367    -0.34200
C2166       C  0.94459815  0.33484970  0.13961837     0.16200
O2167       O  0.94317101  0.33443129  0.16027140    -0.26200
C2168       C  0.93203275  0.33503619  0.15516780     0.06000
C2169       C  0.93232971  0.33535050  0.14232530    -0.31100
O2170       O  0.97139842  0.33384690  0.11945378    -0.22900
C2171       C  0.98248335  0.33330083  0.12473463    -0.02900
C2172       C  0.98201694  0.33311908  0.13754684    -0.17300
H2173       H  0.96847320  0.33330402  0.16012703     0.20700
H2174       H  0.94592480  0.33511482  0.11953637     0.19100
H2175       H  0.92465605  0.33579641  0.13594284     0.19000
H2176       H  0.98958972  0.33271558  0.14405196     0.14900
C2177       C  0.89692985  0.33163606  0.26459600     0.30300
C2178       C  0.90248225  0.32480100  0.27408061    -0.36000
C2179       C  0.89818212  0.32717359  0.28602277     0.16300
C2180       C  0.88922983  0.33587181  0.28852798     0.22100
C2181       C  0.88364340  0.34269350  0.27902472    -0.34200
C2182       C  0.88775564  0.34011836  0.26703552     0.16200
O2183       O  0.89914654  0.33047168  0.25270730    -0.26200
C2184       C  0.89118501  0.33818794  0.24744629     0.06000
C2185       C  0.88383109  0.34442570  0.25589245    -0.31100
O2186       O  0.88625890  0.33619198  0.30031926    -0.22900
C2187       C  0.89328659  0.32747046  0.30536227    -0.02900
C2188       C  0.90088215  0.32156113  0.29691878    -0.17300
H2189       H  0.90939596  0.31784853  0.27223468     0.20700
H2190       H  0.87634060  0.34925095  0.28081245     0.19100
H2191       H  0.87657576  0.35104117  0.25406886     0.19000
H2192       H  0.90719349  0.31398976  0.29853103     0.14900
C2193       C  0.61598622  0.15514578  0.36602105     0.30300
C2194       C  0.61184522  0.15368609  0.37819318    -0.36000
C2195       C  0.59908547  0.15471227  0.37997269     0.16300
C2196       C  0.59095774  0.15700318  0.37042688     0.22100
C2197       C  0.59509859  0.15852501  0.35826146    -0.34200
C2198       C  0.60786030  0.15750281  0.35648847     0.16200
O2199       O  0.62749331  0.15425789  0.36222846    -0.26200
C2200       C  0.62674251  0.15609224  0.35010921     0.06000
C2201       C  0.61474591  0.15817611  0.34602117    -0.31100
O2202       O  0.57939391  0.15721083  0.37411923    -0.22900
C2203       C  0.58011318  0.15505914  0.38619502    -0.02900
C2204       C  0.59214470  0.15346272  0.39036170    -0.17300
H2205       H  0.61811859  0.15173431  0.38572324     0.20700
H2206       H  0.58879850  0.16022501  0.35069102     0.19100
H2207       H  0.61154002  0.15976609  0.33669181     0.19000
H2208       H  0.59529145  0.15140472  0.39961874     0.14900
C2209       C  0.74110928  0.13609170  0.34537069     0.30300
C2210       C  0.74999554  0.14042427  0.35373154    -0.36000
C2211       C  0.76210186  0.13635101  0.35176221     0.16300
C2212       C  0.76524722  0.12835460  0.34237158     0.22100
C2213       C  0.75635478  0.12403034  0.33398907    -0.34200
C2214       C  0.74427437  0.12829626  0.33581914     0.16200
O2215       O  0.72937045  0.13926326  0.34510078    -0.26200
C2216       C  0.72497192  0.13353128  0.33517277     0.06000
C2217       C  0.73382770  0.12656753  0.32903838    -0.31100
O2218       O  0.77719733  0.12606353  0.34203299    -0.22900
C2219       C  0.78175606  0.13280592  0.35123513    -0.02900
C2220       C  0.77279417  0.13939802  0.35758939    -0.17300
H2221       H  0.74769398  0.14681458  0.36104170     0.20700
H2222       H  0.75874772  0.11804793  0.32637005     0.19100
H2223       H  0.73277935  0.12124294  0.32065697     0.19000
H2224       H  0.77402484  0.14569628  0.36523969     0.14900
C2225       C  0.66829653  0.41012351  0.14468868     0.30300
C2226       C  0.65651093  0.41507255  0.14253126    -0.36000
C2227       C  0.65532832  0.42786813  0.14422745     0.16300
C2228       C  0.66508707  0.43526544  0.14771769     0.22100
C2229       C  0.67682041  0.43032186  0.14991433    -0.34200
C2230       C  0.67798607  0.41756198  0.14826706     0.16200
O2231       O  0.67155524  0.39842664  0.14365142    -0.26200
C2232       C  0.68347723  0.39842161  0.14662348     0.06000
C2233       C  0.68794849  0.41007521  0.14956689    -0.31100
O2234       O  0.66203643  0.44700405  0.14846746    -0.22900
C2235       C  0.65014212  0.44716335  0.14549677    -0.02900
C2236       C  0.64544168  0.43551597  0.14280947    -0.17300
H2237       H  0.64882708  0.40936679  0.13969531     0.20700
H2238       H  0.68452918  0.43604341  0.15265061     0.19100
H2239       H  0.69719775  0.41267418  0.15226668     0.19000
H2240       H  0.63618311  0.43308496  0.13998219     0.14900
C2241       C  0.81308450  0.35376978  0.16719520     0.30300
C2242       C  0.80170376  0.35923656  0.16999263    -0.36000
C2243       C  0.79203314  0.35670904  0.16177495     0.16300
C2244       C  0.79342647  0.34915887  0.15162006     0.22100
C2245       C  0.80486788  0.34387505  0.14869930    -0.34200
C2246       C  0.81458584  0.34654623  0.15682137     0.16200
O2247       O  0.82321418  0.35450543  0.17387500    -0.26200
C2248       C  0.83136389  0.34781650  0.16762027     0.06000
C2249       C  0.82655012  0.34269361  0.15688138    -0.31100
O2250       O  0.78299091  0.34743939  0.14561554    -0.22900
C2251       C  0.77485439  0.35413537  0.15188174    -0.02900
C2252       C  0.77996309  0.36017610  0.16198919    -0.17300
H2253       H  0.80043358  0.36489680  0.17811352     0.20700
H2254       H  0.80605497  0.33793264  0.14077024     0.19100
H2255       H  0.83108182  0.33668842  0.15033083     0.19000
H2256       H  0.77535369  0.36586138  0.16876732     0.14900
C2257       C  0.67153611  0.12774341  0.06370978     0.30300
C2258       C  0.67388443  0.13971521  0.06795494    -0.36000
C2259       C  0.67536541  0.14099770  0.08071794     0.16300
C2260       C  0.67457365  0.13120398  0.08881628     0.22100
C2261       C  0.67235480  0.11915315  0.08453864    -0.34200
C2262       C  0.67088050  0.11785440  0.07171167     0.16200
O2263       O  0.66953413  0.12457539  0.05216020    -0.26200
C2264       C  0.66761916  0.11247266  0.05267935     0.06000
C2265       C  0.66837222  0.10774372  0.06461306    -0.31100
O2266       O  0.67572520  0.13469267  0.10044461    -0.22900
C2267       C  0.67732229  0.14686069  0.09971500    -0.02900
C2268       C  0.67723305  0.15125086  0.08765966    -0.17300
H2269       H  0.67433075  0.14752511  0.06174723     0.20700
H2270       H  0.67162837  0.11138908  0.09077354     0.19100
H2271       H  0.66709910  0.09830823  0.06761833     0.19000
H2272       H  0.67805839  0.16067478  0.08446723     0.14900
C2273       C  0.66230294  0.16127673  0.24037965     0.30300
C2274       C  0.65892390  0.16998989  0.23143154    -0.36000
C2275       C  0.66217979  0.16714181  0.21926175     0.16300
C2276       C  0.66818157  0.15638127  0.21604883     0.22100
C2277       C  0.67161403  0.14768080  0.22501734    -0.34200
C2278       C  0.66853524  0.15062458  0.23723137     0.16200
O2279       O  0.66055470  0.16227690  0.25236351    -0.26200
C2280       C  0.66588377  0.15222240  0.25696388     0.06000
C2281       C  0.67101445  0.14463533  0.24799937    -0.31100
O2282       O  0.67046948  0.15572763  0.20411356    -0.22900
C2283       C  0.66595293  0.16625573  0.19967533    -0.02900
C2284       C  0.66070851  0.17371248  0.20868496    -0.17300
H2285       H  0.65429014  0.17850389  0.23382011     0.20700
H2286       H  0.67655227  0.13932941  0.22267014     0.19100
H2287       H  0.67596022  0.13604953  0.24926413     0.19000
H2288       H  0.65651946  0.18271628  0.20761799     0.14900
C2289       C  0.68001373  0.26007825  0.13741833     0.30300
C2290       C  0.67703462  0.27219503  0.14089839    -0.36000
C2291       C  0.68504261  0.28145068  0.13669697     0.16300
C2292       C  0.69536030  0.27893859  0.12970392     0.22100
C2293       C  0.69817113  0.26687097  0.12598431    -0.34200
C2294       C  0.69008028  0.25764926  0.13004065     0.16200
O2295       O  0.67421369  0.24993671  0.14084246    -0.26200
C2296       C  0.68053859  0.24094293  0.13539357     0.06000
C2297       C  0.69044116  0.24520488  0.12848811    -0.31100
O2298       O  0.70204296  0.28886141  0.12753377    -0.22900
C2299       C  0.69582887  0.29788857  0.13304084    -0.02900
C2300       C  0.68512657  0.29383989  0.13881377    -0.17300
H2301       H  0.66919307  0.27423322  0.14670345     0.20700
H2302       H  0.70625594  0.26478175  0.12054165     0.19100
H2303       H  0.69721245  0.23985919  0.12348312     0.19000
H2304       H  0.67866195  0.29915967  0.14423249     0.14900
C2305       C  0.39154332  0.87305735  0.07340084     0.30300
C2306       C  0.39055795  0.87391498  0.08631211    -0.36000
C2307       C  0.38934101  0.86269952  0.09271621     0.16300
C2308       C  0.38907522  0.85142941  0.08680548     0.22100
C2309       C  0.39019883  0.85056287  0.07392675    -0.34200
C2310       C  0.39142901  0.86176180  0.06753728     0.16200
O2311       O  0.39232061  0.88236811  0.06556237    -0.26200
C2312       C  0.39272317  0.87696627  0.05452555     0.06000
C2313       C  0.39226369  0.86414554  0.05521561    -0.31100
O2314       O  0.38755868  0.84213981  0.09452614    -0.22900
C2315       C  0.38693546  0.84748086  0.10557098    -0.02900
C2316       C  0.38801507  0.86027495  0.10501521    -0.17300
H2317       H  0.39057649  0.88271806  0.09101925     0.20700
H2318       H  0.38996177  0.84177209  0.06920027     0.19100
H2319       H  0.39226261  0.85754886  0.04772436     0.19000
H2320       H  0.38772129  0.86682291  0.11254337     0.14900
C2321       C  0.44884834  0.88414870  0.35587412     0.30300
C2322       C  0.46168945  0.88561621  0.35547895    -0.36000
C2323       C  0.46784314  0.88503946  0.36686879     0.16300
C2324       C  0.46181483  0.88315989  0.37790939     0.22100
C2325       C  0.44895819  0.88178952  0.37831110    -0.34200
C2326       C  0.44279789  0.88238010  0.36692111     0.16200
O2327       O  0.44132810  0.88377178  0.34628895    -0.26200
C2328       C  0.43030000  0.88180366  0.35127031     0.06000
C2329       C  0.43066248  0.88092375  0.36407881    -0.31100
O2330       O  0.46945561  0.88259662  0.38740321    -0.22900
C2331       C  0.48052516  0.88415061  0.38236573    -0.02900
C2332       C  0.48005721  0.88573206  0.36962239    -0.17300
H2333       H  0.46656816  0.88688987  0.34687423     0.20700
H2334       H  0.44411516  0.88017601  0.38687818     0.19100
H2335       H  0.42315839  0.87902133  0.37035452     0.19000
H2336       H  0.48762307  0.88703945  0.36326981     0.14900
C2337       C  0.39565736  0.84555525  0.24677789     0.30300
C2338       C  0.39944607  0.84921604  0.23492344    -0.36000
C2339       C  0.39574318  0.84154715  0.22513567     0.16300
C2340       C  0.38900338  0.83090729  0.22697691     0.22100
C2341       C  0.38518935  0.82728680  0.23876979    -0.34200
C2342       C  0.38870363  0.83503438  0.24847936     0.16200
O2343       O  0.39769473  0.85151151  0.25721808    -0.26200
C2344       C  0.39186056  0.84474542  0.26564234     0.06000
C2345       C  0.38612656  0.83438879  0.26071710    -0.31100
O2346       O  0.38662788  0.82502323  0.21663438    -0.22900
C2347       C  0.39174016  0.83202230  0.20796858    -0.02900
C2348       C  0.39752457  0.84247799  0.21268204    -0.17300
H2349       H  0.40474287  0.85753878  0.23342285     0.20700
H2350       H  0.37972500  0.81906660  0.24025073     0.19100
H2351       H  0.38070915  0.82746878  0.26543981     0.19000
H2352       H  0.40244397  0.84958206  0.20769567     0.14900
C2353       C  0.15498589  0.92578375  0.35414963     0.30300
C2354       C  0.15486422  0.91293952  0.35232445    -0.36000
C2355       C  0.16645799  0.90714955  0.35198250     0.16300
C2356       C  0.17736290  0.91357331  0.35334996     0.22100
C2357       C  0.17747903  0.92634841  0.35514608    -0.34200
C2358       C  0.16594882  0.93209838  0.35549681     0.16200
O2359       O  0.14529340  0.93314371  0.35485379    -0.26200
C2360       C  0.15019588  0.94426498  0.35669344     0.06000
C2361       C  0.16299228  0.94412613  0.35716889    -0.31100
O2362       O  0.18712360  0.90638136  0.35296916    -0.22900
C2363       C  0.18247715  0.89516583  0.35131400    -0.02900
C2364       C  0.16965508  0.89505289  0.35060285    -0.17300
H2365       H  0.14635760  0.90782532  0.35130901     0.20700
H2366       H  0.18598192  0.93144776  0.35627734     0.19100
H2367       H  0.16925122  0.95177624  0.35853670     0.19000
H2368       H  0.16359271  0.88721067  0.34944462     0.14900
C2369       C  0.29277704  0.84700525  0.34966141     0.30300
C2370       C  0.30293422  0.84004166  0.34579790    -0.36000
C2371       C  0.31424553  0.84623476  0.34559422     0.16300
C2372       C  0.31556011  0.85838641  0.34917787     0.22100
C2373       C  0.30535245  0.86539707  0.35297234    -0.34200
C2374       C  0.29396194  0.85925280  0.35295275     0.16200
O2375       O  0.28132098  0.84308910  0.35027462    -0.26200
C2376       C  0.27502231  0.85297114  0.35386431     0.06000
C2377       C  0.28237763  0.86333607  0.35563763    -0.31100
O2378       O  0.32699576  0.86235815  0.34800315    -0.22900
C2379       C  0.33298711  0.85265372  0.34346334    -0.02900
C2380       C  0.32552035  0.84238958  0.34175422    -0.17300
H2381       H  0.30203518  0.83052073  0.34292919     0.20700
H2382       H  0.30619395  0.87501132  0.35552601     0.19100
H2383       H  0.27959795  0.87248668  0.35850000     0.19000
H2384       H  0.32801277  0.83347262  0.33801891     0.14900
C2385       C  0.39633387  0.58613550  0.15365172     0.30300
C2386       C  0.40845516  0.58156536  0.15320500    -0.36000
C2387       C  0.40967125  0.56865124  0.15321452     0.16300
C2388       C  0.39964997  0.56082174  0.15368661     0.22100
C2389       C  0.38758867  0.56537176  0.15423486    -0.34200
C2390       C  0.38638440  0.57822633  0.15417562     0.16200
O2391       O  0.39295371  0.59785159  0.15331975    -0.26200
C2392       C  0.38069025  0.59737030  0.15366029     0.06000
C2393       C  0.37613391  0.58539324  0.15421833    -0.31100
O2394       O  0.40280845  0.54910953  0.15315605    -0.22900
C2395       C  0.41502417  0.54936887  0.15232332    -0.02900
C2396       C  0.41983704  0.56128164  0.15236144    -0.17300
H2397       H  0.41635391  0.58763307  0.15266378     0.20700
H2398       H  0.37967369  0.55930113  0.15446515     0.19100
H2399       H  0.36663534  0.58236317  0.15442316     0.19000
H2400       H  0.42937326  0.56409544  0.15160135     0.14900
C2401       C  0.36711665  0.73905928  0.14016044     0.30300
C2402       C  0.36057367  0.72984850  0.13383298    -0.36000
C2403       C  0.36224228  0.71774230  0.13812934     0.16300
C2404       C  0.37000820  0.71484069  0.14781822     0.22100
C2405       C  0.37646077  0.72406221  0.15421647    -0.34200
C2406       C  0.37460635  0.73619099  0.15007244     0.16200
O2407       O  0.36671490  0.75102546  0.13789951    -0.26200
C2408       C  0.37390961  0.75588395  0.14658819     0.06000
C2409       C  0.37903176  0.74709518  0.15443587    -0.31100
O2410       O  0.37010969  0.70292285  0.15033772    -0.22900
C2411       C  0.36217505  0.69816452  0.14226388    -0.02900
C2412       C  0.35696665  0.70695120  0.13447460    -0.17300
H2413       H  0.35445546  0.73199160  0.12622496     0.20700
H2414       H  0.38235588  0.72195123  0.16200761     0.19100
H2415       H  0.38512202  0.74854297  0.16222557     0.19000
H2416       H  0.35021101  0.70557692  0.12723973     0.14900
C2417       C  0.18505519  0.62722068  0.43848977     0.30300
C2418       C  0.18570968  0.63921717  0.43369798    -0.36000
C2419       C  0.18469331  0.64024747  0.42085234     0.16300
C2420       C  0.18305320  0.63018441  0.41322554     0.22100
C2421       C  0.18233762  0.61816669  0.41803422    -0.34200
C2422       C  0.18344101  0.61712235  0.43090054     0.16200
O2423       O  0.18606653  0.62414542  0.45020217    -0.26200
C2424       C  0.18511950  0.61191195  0.45015644     0.06000
C2425       C  0.18344948  0.60701276  0.43840128    -0.31100
O2426       O  0.18244474  0.63331060  0.40147041    -0.22900
C2427       C  0.18375220  0.64552544  0.40158899    -0.02900
C2428       C  0.18517533  0.65033606  0.41340245    -0.17300
H2429       H  0.18705297  0.64718122  0.43957014     0.20700
H2430       H  0.18113298  0.61018969  0.41215141     0.19100
H2431       H  0.18248508  0.59743087  0.43576617     0.19000
H2432       H  0.18638953  0.65986682  0.41611729     0.14900
C2433       C  0.18181120  0.75518372  0.35218676     0.30300
C2434       C  0.17847243  0.76688719  0.34764556    -0.36000
C2435       C  0.18600759  0.77676626  0.35135874     0.16300
C2436       C  0.19619504  0.77513333  0.35884152     0.22100
C2437       C  0.19944110  0.76351637  0.36345593    -0.34200
C2438       C  0.19183629  0.75372775  0.35991481     0.16200
O2439       O  0.17619613  0.74462080  0.34987591    -0.26200
C2440       C  0.18264653  0.73639270  0.35636219     0.06000
C2441       C  0.19245243  0.74155252  0.36279732    -0.31100
O2442       O  0.20222633  0.78544809  0.36084254    -0.22900
C2443       C  0.19579212  0.79389956  0.35471404    -0.02900
C2444       C  0.18553317  0.78908286  0.34865750    -0.17300
H2445       H  0.17059963  0.76818703  0.34163469     0.20700
H2446       H  0.20738307  0.76220061  0.36937422     0.19100
H2447       H  0.19917392  0.73696630  0.36860048     0.19000
H2448       H  0.17894694  0.79387267  0.34286544     0.14900
C2449       C  0.11176828  0.64526938  0.14497282     0.30300
C2450       C  0.09886354  0.64549228  0.14517500    -0.36000
C2451       C  0.09300836  0.64647118  0.13369248     0.16300
C2452       C  0.09936549  0.64716510  0.12270431     0.22100
C2453       C  0.11233281  0.64693160  0.12249797    -0.34200
C2454       C  0.11822231  0.64593221  0.13403343     0.16200
O2455       O  0.11903294  0.64445336  0.15468519    -0.26200
C2456       C  0.13033493  0.64453186  0.14997690     0.06000
C2457       C  0.13042539  0.64541691  0.13714973    -0.31100
O2458       O  0.09191867  0.64788499  0.11305304    -0.22900
C2459       C  0.08067546  0.64767564  0.11798065    -0.02900
C2460       C  0.08083135  0.64682155  0.13078195    -0.17300
H2461       H  0.09373617  0.64492726  0.15371029     0.20700
H2462       H  0.11745829  0.64744602  0.11396021     0.19100
H2463       H  0.13830150  0.64573037  0.13105097     0.19000
H2464       H  0.07309860  0.64636511  0.13705151     0.14900
C2465       C  0.27112604  0.63002610  0.16115528     0.30300
C2466       C  0.26234424  0.62442814  0.16880010    -0.36000
C2467       C  0.25017065  0.62851814  0.16729915     0.16300
C2468       C  0.24682223  0.63733915  0.15872298     0.22100
C2469       C  0.25562516  0.64303033  0.15117839    -0.34200
C2470       C  0.26781974  0.63907876  0.15281141     0.16200
O2471       O  0.28307003  0.62779236  0.16114385    -0.26200
C2472       C  0.28745568  0.63561385  0.15277614     0.06000
C2473       C  0.27840448  0.64288445  0.14731783    -0.31100
O2474       O  0.23491353  0.63975867  0.15888960    -0.22900
C2475       C  0.23062840  0.63251118  0.16780202    -0.02900
C2476       C  0.23969621  0.62535660  0.17339573    -0.17300
H2477       H  0.26484595  0.61749053  0.17553992     0.20700
H2478       H  0.25316154  0.65013350  0.14459984     0.19100
H2479       H  0.27948146  0.64996365  0.14035923     0.19000
H2480       H  0.23869534  0.61881897  0.18087771     0.14900
C2481       C  0.16051068  0.65640939  0.28295138     0.30300
C2482       C  0.15605171  0.65931574  0.27113485    -0.36000
C2483       C  0.16124468  0.65268089  0.26132958     0.16300
C2484       C  0.17030080  0.64388559  0.26301382     0.22100
C2485       C  0.17455260  0.64077549  0.27486090    -0.34200
C2486       C  0.16926025  0.64731669  0.28468483     0.16200
O2487       O  0.15763874  0.66211431  0.29329626    -0.26200
C2488       C  0.16448692  0.65647799  0.30180369     0.06000
C2489       C  0.17181309  0.64710836  0.29700140    -0.31100
O2490       O  0.17438225  0.63935802  0.25248887    -0.22900
C2491       C  0.16772205  0.64519874  0.24396734    -0.02900
C2492       C  0.15935529  0.65355033  0.24893248    -0.17300
H2493       H  0.14925946  0.66648552  0.26965864     0.20700
H2494       H  0.18170924  0.63396105  0.27629270     0.19100
H2495       H  0.17857901  0.64150578  0.30176465     0.19000
H2496       H  0.15307869  0.65963579  0.24409158     0.14900
C2497       C  0.12391669  0.33311666  0.87142204     0.30300
C2498       C  0.11930940  0.33432543  0.88348099    -0.36000
C2499       C  0.10650198  0.33290415  0.88479541     0.16300
C2500       C  0.09882221  0.33048732  0.87491376     0.22100
C2501       C  0.10342573  0.32916441  0.86293789    -0.34200
C2502       C  0.11616824  0.33057330  0.86163401     0.16200
O2503       O  0.13547753  0.33456932  0.86791197    -0.26200
C2504       C  0.13506194  0.33290870  0.85573474     0.06000
C2505       C  0.12329052  0.33034447  0.85135949    -0.31100
O2506       O  0.08714229  0.32992955  0.87807783    -0.22900
C2507       C  0.08726661  0.33193919  0.89016684    -0.02900
C2508       C  0.09906565  0.33382128  0.89490072    -0.17300
H2509       H  0.12524629  0.33643082  0.89123605     0.20700
H2510       H  0.09744666  0.32737593  0.85513410     0.19100
H2511       H  0.12033390  0.32884567  0.84193685     0.19000
H2512       H  0.10172929  0.33581603  0.90431938     0.14900
C2513       C  0.38916032  0.41574980  0.84730529     0.30300
C2514       C  0.38905381  0.42852034  0.84533298    -0.36000
C2515       C  0.40000234  0.43475887  0.84813889     0.16300
C2516       C  0.41040115  0.42887766  0.85255595     0.22100
C2517       C  0.41051738  0.41605510  0.85452203    -0.34200
C2518       C  0.39952678  0.40979202  0.85170968     0.16200
O2519       O  0.37984784  0.40818489  0.84543844    -0.26200
C2520       C  0.38427729  0.39719956  0.84863544     0.06000
C2521       C  0.39649118  0.39761487  0.85260125    -0.31100
O2522       O  0.41961656  0.43660386  0.85451693    -0.22900
C2523       C  0.41500064  0.44755235  0.85133541    -0.02900
C2524       C  0.40283995  0.44693220  0.84731252    -0.17300
H2525       H  0.38097002  0.43327410  0.84189222     0.20700
H2526       H  0.41858353  0.41130721  0.85801052     0.19100
H2527       H  0.40222750  0.39009150  0.85580991     0.19000
H2528       H  0.39694785  0.45435748  0.84416198     0.14900
C2529       C  0.27341240  0.35125615  0.84922041     0.30300
C2530       C  0.26206547  0.34636387  0.85304519    -0.36000
C2531       C  0.25162404  0.35070998  0.84673706     0.16300
C2532       C  0.25235234  0.35914278  0.83721628     0.22100
C2533       C  0.26366312  0.36414599  0.83350813    -0.34200
C2534       C  0.27406775  0.35992811  0.83991351     0.16200
O2535       O  0.28435823  0.34829931  0.85362042    -0.26200
C2536       C  0.29208633  0.35528362  0.84714835     0.06000
C2537       C  0.28620528  0.36273873  0.83851401    -0.31100
O2538       O  0.24155078  0.36146537  0.83217682    -0.22900
C2539       C  0.23375563  0.35457545  0.83864388    -0.02900
C2540       C  0.23947398  0.34771811  0.84788311    -0.17300
H2541       H  0.26144010  0.33956003  0.86032757     0.20700
H2542       H  0.26431502  0.37075720  0.82605230     0.19100
H2543       H  0.29029629  0.36907749  0.83198357     0.19000
H2544       H  0.23535376  0.34116586  0.85418025     0.14900
C2545       C  0.38397570  0.13156901  0.91773833     0.30300
C2546       C  0.38612108  0.11967487  0.92241509    -0.36000
C2547       C  0.38402866  0.11809912  0.93508463     0.16300
C2548       C  0.38013671  0.12759327  0.94261491     0.22100
C2549       C  0.37794658  0.13945948  0.93794002    -0.34200
C2550       C  0.38002041  0.14102291  0.92528478     0.16200
O2551       O  0.38558810  0.13518097  0.90623621    -0.26200
C2552       C  0.38263518  0.14709827  0.90643213     0.06000
C2553       C  0.37907232  0.15123205  0.91803760    -0.31100
O2554       O  0.37903250  0.12416739  0.95421108    -0.22900
C2555       C  0.38218620  0.11230658  0.95412787    -0.02900
C2556       C  0.38537490  0.10800044  0.94247573    -0.17300
H2557       H  0.38930218  0.11221095  0.91660773     0.20700
H2558       H  0.37495747  0.14697375  0.94378731     0.19100
H2559       H  0.37635272  0.16043827  0.92077709     0.19000
H2560       H  0.38843385  0.09885929  0.93988133     0.14900
C2561       C  0.37023244  0.27832864  0.86719398     0.30300
C2562       C  0.36730920  0.26679349  0.87224296    -0.36000
C2563       C  0.37492477  0.25697906  0.86872334     0.16300
C2564       C  0.38464407  0.25836842  0.86064568     0.22100
C2565       C  0.38769510  0.26995929  0.85574522    -0.34200
C2566       C  0.38017056  0.27982229  0.85940373     0.16200
O2567       O  0.36407318  0.28865139  0.86890733    -0.26200
C2568       C  0.37024000  0.29691322  0.86228546     0.06000
C2569       C  0.38038624  0.29198127  0.85621078    -0.31100
O2570       O  0.39013758  0.24781003  0.85814898    -0.22900
C2571       C  0.38395205  0.23960907  0.86485204    -0.02900
C2572       C  0.37443304  0.24479316  0.87166650    -0.17300
H2573       H  0.35953805  0.26553102  0.87835515     0.20700
H2574       H  0.39528925  0.27116983  0.84940481     0.19100
H2575       H  0.38672076  0.29659074  0.85004107     0.19000
H2576       H  0.36786828  0.24019334  0.87759755     0.14900
C2577       C  0.18885152  0.37172196  0.57318032     0.30300
C2578       C  0.18742526  0.37186629  0.58608808    -0.36000
C2579       C  0.18928365  0.36054809  0.59218836     0.16300
C2580       C  0.19230011  0.34985145  0.58598612     0.22100
C2581       C  0.19368554  0.34970028  0.57312434    -0.34200
C2582       C  0.19185045  0.36098012  0.56705459     0.16200
O2583       O  0.18748531  0.38118717  0.56558365    -0.26200
C2584       C  0.18960395  0.37640325  0.55445623     0.06000
C2585       C  0.19237631  0.36387069  0.55485002    -0.31100
O2586       O  0.19361891  0.34031964  0.59343247    -0.22900
C2587       C  0.19146498  0.34490744  0.60460754    -0.02900
C2588       C  0.18869443  0.35746801  0.60441010    -0.17300
H2589       H  0.18503125  0.38020543  0.59102234     0.20700
H2590       H  0.19602241  0.34134704  0.56818351     0.19100
H2591       H  0.19440159  0.35774130  0.54724018     0.19000
H2592       H  0.18653184  0.36342889  0.61211469     0.14900
C2593       C  0.17131179  0.33231216  0.74544285     0.30300
C2594       C  0.16699225  0.32447747  0.73607863    -0.36000
C2595       C  0.17168242  0.32666979  0.72422319     0.16300
C2596       C  0.17990054  0.33604536  0.72168410     0.22100
C2597       C  0.18425806  0.34385200  0.73106357    -0.34200
C2598       C  0.17971064  0.34153963  0.74295764     0.16200
O2599       O  0.16843174  0.33168634  0.75725156    -0.26200
C2600       C  0.17515619  0.34056479  0.76241727     0.06000
C2601       C  0.18236537  0.34698144  0.75396841    -0.31100
O2602       O  0.18321564  0.33629153  0.70996810    -0.22900
C2603       C  0.17713939  0.32685961  0.70497612    -0.02900
C2604       C  0.16983661  0.32054338  0.71341858    -0.17300
H2605       H  0.16059795  0.31705414  0.73794444     0.20700
H2606       H  0.19089093  0.35107637  0.72925604     0.19100
H2607       H  0.18871229  0.35448414  0.75570467     0.19000
H2608       H  0.16409636  0.31253247  0.71184045     0.14900
C2609       C  0.47402341  0.14492036  0.63654331     0.30300
C2610       C  0.46961834  0.14664683  0.64855986    -0.36000
C2611       C  0.45678796  0.14686021  0.64987230     0.16300
C2612       C  0.44879187  0.14543785  0.64005507     0.22100
C2613       C  0.45321219  0.14387713  0.62796896    -0.34200
C2614       C  0.46609339  0.14369481  0.62664123     0.16200
O2615       O  0.48567647  0.14390621  0.63335483    -0.26200
C2616       C  0.48528350  0.14208876  0.62122802     0.06000
C2617       C  0.47333627  0.14192997  0.61650140    -0.31100
O2618       O  0.43713723  0.14536589  0.64354446    -0.22900
C2619       C  0.43772188  0.14683230  0.65573614    -0.02900
C2620       C  0.44971652  0.14786483  0.66015475    -0.17300
H2621       H  0.47577575  0.14751698  0.65638263     0.20700
H2622       H  0.44705429  0.14265278  0.62019643     0.19100
H2623       H  0.47042084  0.14039307  0.60707110     0.19000
H2624       H  0.45280435  0.14886209  0.66960321     0.14900
C2625       C  0.40260553  0.16308674  0.78757975     0.30300
C2626       C  0.40674861  0.16632988  0.77577154    -0.36000
C2627       C  0.40217312  0.15920678  0.76599726     0.16300
C2628       C  0.39392476  0.14966603  0.76768273     0.22100
C2629       C  0.38987456  0.14633164  0.77952721    -0.34200
C2630       C  0.39462079  0.15333467  0.78934241     0.16200
O2631       O  0.40547814  0.16871639  0.79796334    -0.26200
C2632       C  0.39942234  0.16238647  0.80653640     0.06000
C2633       C  0.39255408  0.15266025  0.80173399    -0.31100
O2634       O  0.39068336  0.14440495  0.75718708    -0.22900
C2635       C  0.39707180  0.15056027  0.74870796    -0.02900
C2636       C  0.40438898  0.15985702  0.75366212    -0.17300
H2637       H  0.41307093  0.17390806  0.77430597     0.20700
H2638       H  0.38346850  0.13882294  0.78098309     0.19100
H2639       H  0.38658309  0.14632691  0.80660543     0.19000
H2640       H  0.41037252  0.16623234  0.74886177     0.14900
C2641       C  0.17123247  0.08310708  0.66386964     0.30300
C2642       C  0.15909234  0.07859560  0.66314039    -0.36000
C2643       C  0.15774923  0.06571456  0.66400240     0.16300
C2644       C  0.16767046  0.05787273  0.66550589     0.22100
C2645       C  0.17974378  0.06237268  0.66629044    -0.34200
C2646       C  0.18108027  0.07518673  0.66539679     0.16200
O2647       O  0.17473151  0.09475854  0.66299755    -0.26200
C2648       C  0.18697077  0.09423022  0.66398919     0.06000
C2649       C  0.19139310  0.08228261  0.66550454    -0.31100
O2650       O  0.16443003  0.04616979  0.66572423    -0.22900
C2651       C  0.15225629  0.04643153  0.66434279    -0.02900
C2652       C  0.14755415  0.05835665  0.66326262    -0.17300
H2653       H  0.15127838  0.08467074  0.66182810     0.20700
H2654       H  0.18758122  0.05627789  0.66734894     0.19100
H2655       H  0.20084874  0.07922852  0.66641455     0.19000
H2656       H  0.13807836  0.06116768  0.66187946     0.14900
C2657       C  0.20192569  0.21191898  0.63931991     0.30300
C2658       C  0.20473415  0.22330411  0.63384227    -0.36000
C2659       C  0.19787183  0.23344343  0.63799199     0.16300
C2660       C  0.18896872  0.23246957  0.64701501     0.22100
C2661       C  0.18601275  0.22104799  0.65233776    -0.34200
C2662       C  0.19276769  0.21088306  0.64807808     0.16200
O2663       O  0.20764096  0.20138039  0.63731686    -0.26200
C2664       C  0.20194138  0.19345944  0.64474402     0.06000
C2665       C  0.19255132  0.19882403  0.65160457    -0.31100
O2666       O  0.18421679  0.24324442  0.65002997    -0.22900
C2667       C  0.19003837  0.25120312  0.64273633    -0.02900
C2668       C  0.19859280  0.24562478  0.63499717    -0.17300
H2669       H  0.21194049  0.22423420  0.62702113     0.20700
H2670       H  0.17910960  0.22018970  0.65947517     0.19100
H2671       H  0.18681398  0.19458121  0.65857080     0.19000
H2672       H  0.20476652  0.24996266  0.62847943     0.14900
C2673       C  0.29869560  0.13920040  0.66075791     0.30300
C2674       C  0.31037975  0.14384345  0.65767806    -0.36000
C2675       C  0.32034880  0.13897484  0.66438488     0.16300
C2676       C  0.31886011  0.13036811  0.67365839     0.22100
C2677       C  0.30722353  0.12568344  0.67666912    -0.34200
C2678       C  0.29731823  0.13034535  0.66980647     0.16200
O2679       O  0.28809685  0.14231075  0.65562318    -0.26200
C2680       C  0.27989558  0.13521382  0.66136291     0.06000
C2681       C  0.28511571  0.12758563  0.67026060    -0.31100
O2682       O  0.32934159  0.12733155  0.67899066    -0.22900
C2683       C  0.33770614  0.13390021  0.67293038    -0.02900
C2684       C  0.33268049  0.14129397  0.66369859    -0.17300
H2685       H  0.31161540  0.15069100  0.65051941     0.20700
H2686       H  0.30598936  0.11883337  0.68382611     0.19100
H2687       H  0.28056778  0.12104254  0.67626268     0.19000
H2688       H  0.33738322  0.14767057  0.65763627     0.14900
C2689       C  0.65542543  0.56663414  0.14056373     0.30300
C2690       C  0.65513717  0.57950851  0.13898069    -0.36000
C2691       C  0.66649961  0.58562470  0.14013714     0.16300
C2692       C  0.67736861  0.57947513  0.14263608     0.22100
C2693       C  0.67766218  0.56664322  0.14417469    -0.34200
C2694       C  0.66633698  0.56055526  0.14303189     0.16200
O2695       O  0.64591459  0.55904151  0.14000440    -0.26200
C2696       C  0.65085201  0.54797559  0.14209738     0.06000
C2697       C  0.66352039  0.54838604  0.14402999    -0.31100
O2698       O  0.68690202  0.58695266  0.14337813    -0.22900
C2699       C  0.68212328  0.59807436  0.14136034    -0.02900
C2700       C  0.66945354  0.59783409  0.13928314    -0.17300
H2701       H  0.64665845  0.58441009  0.13703934     0.20700
H2702       H  0.68613587  0.56174687  0.14615853     0.19100
H2703       H  0.66975532  0.54082852  0.14596663     0.19000
H2704       H  0.66333928  0.60550603  0.13741202     0.14900
C2705       C  0.88012359  0.64523790  0.42006692     0.30300
C2706       C  0.88042083  0.64497987  0.43300144    -0.36000
C2707       C  0.88032859  0.63324356  0.43845579     0.16300
C2708       C  0.87993126  0.62245809  0.43170398     0.22100
C2709       C  0.87966901  0.62271803  0.41874311    -0.34200
C2710       C  0.87979248  0.63447699  0.41326832     0.16200
O2711       O  0.88026476  0.65520330  0.41306792    -0.26200
C2712       C  0.88006214  0.65079135  0.40160912     0.06000
C2713       C  0.87974697  0.63795249  0.40117785    -0.31100
O2714       O  0.87974303  0.61251598  0.43878048    -0.22900
C2715       C  0.88004122  0.61703104  0.45020529    -0.02900
C2716       C  0.88044965  0.62986434  0.45052529    -0.17300
H2717       H  0.88071299  0.65334877  0.43843987     0.20700
H2718       H  0.87938533  0.61434865  0.41330797     0.19100
H2719       H  0.87960874  0.63204079  0.39313629     0.19000
H2720       H  0.88066234  0.63587141  0.45849393     0.14900
C2721       C  0.96894518  0.64041159  0.13235653     0.30300
C2722       C  0.96425676  0.64097913  0.14435503    -0.36000
C2723       C  0.95143563  0.64018438  0.14541612     0.16300
C2724       C  0.94367162  0.63886137  0.13540031     0.22100
C2725       C  0.94838793  0.63824198  0.12333726    -0.34200
C2726       C  0.96127671  0.63908826  0.12225919     0.16200
O2727       O  0.98063987  0.64129552  0.12929457    -0.26200
C2728       C  0.98054045  0.64053354  0.11706036     0.06000
C2729       C  0.96874718  0.63912501  0.11214388    -0.31100
O2730       O  0.93192839  0.63854580  0.13864041    -0.22900
C2731       C  0.93226158  0.63971807  0.15087917    -0.02900
C2732       C  0.94416126  0.64074780  0.15554837    -0.17300
H2733       H  0.97019381  0.64211997  0.15231352     0.20700
H2734       H  0.94243806  0.63731406  0.11536297     0.19100
H2735       H  0.96606678  0.63841125  0.10254702     0.19000
H2736       H  0.94706688  0.64186485  0.16503952     0.14900
C2737       C  0.90137049  0.66322323  0.28314088     0.30300
C2738       C  0.90657758  0.66534102  0.27145795    -0.36000
C2739       C  0.90167881  0.65838412  0.26166867     0.16300
C2740       C  0.89219102  0.65006224  0.26326131     0.22100
C2741       C  0.88723380  0.64769701  0.27497829    -0.34200
C2742       C  0.89224224  0.65451840  0.28477894     0.16200
O2743       O  0.90388848  0.66931985  0.29339388    -0.26200
C2744       C  0.89643921  0.66428760  0.30175364     0.06000
C2745       C  0.88907123  0.65494931  0.29693475    -0.31100
O2746       O  0.88829526  0.64533761  0.25274286    -0.22900
C2747       C  0.89551603  0.65051211  0.24429431    -0.02900
C2748       C  0.90410529  0.65863644  0.24931109    -0.17300
H2749       H  0.91368202  0.67219406  0.27003815     0.20700
H2750       H  0.87973810  0.64125430  0.27630206     0.19100
H2751       H  0.88194236  0.64973613  0.30156300     0.19000
H2752       H  0.91072150  0.66433418  0.24449388     0.14900
C2753       C  0.79021602  0.64188042  0.16470900     0.30300
C2754       C  0.79935801  0.64557592  0.17303275    -0.36000
C2755       C  0.81136934  0.64189488  0.17020131     0.16300
C2756       C  0.81431834  0.63522769  0.15977064     0.22100
C2757       C  0.80509835  0.63138534  0.15146632    -0.34200
C2758       C  0.79297139  0.63486072  0.15444843     0.16200
O2759       O  0.77841470  0.64448829  0.16556124    -0.26200
C2760       C  0.77344029  0.63888282  0.15587004     0.06000
C2761       C  0.78200640  0.63265928  0.14862958    -0.31100
O2762       O  0.82626047  0.63288476  0.15902089    -0.22900
C2763       C  0.83088372  0.63798969  0.16921200    -0.02900
C2764       C  0.82202967  0.64368966  0.17647958    -0.17300
H2765       H  0.79723815  0.65090947  0.18119572     0.20700
H2766       H  0.80720930  0.62600501  0.14333436     0.19100
H2767       H  0.78041897  0.62760634  0.14016439     0.19000
H2768       H  0.82327307  0.64846970  0.18515882     0.14900
C2769       C  0.88593392  0.91953868  0.35234223     0.30300
C2770       C  0.88626882  0.93245362  0.35203970    -0.36000
C2771       C  0.89799749  0.93782140  0.35255963     0.16300
C2772       C  0.90872821  0.93101249  0.35326619     0.22100
C2773       C  0.90839943  0.91804462  0.35345391    -0.34200
C2774       C  0.89662200  0.91264895  0.35299011     0.16200
O2775       O  0.87591651  0.91266557  0.35243272    -0.26200
C2776       C  0.88019487  0.90118518  0.35312006     0.06000
C2777       C  0.89302234  0.90060070  0.35346117    -0.31100
O2778       O  0.91864829  0.93805200  0.35413737    -0.22900
C2779       C  0.91414780  0.94949241  0.35400979    -0.02900
C2780       C  0.90136967  0.94986363  0.35299132    -0.17300
H2781       H  0.87794238  0.93794857  0.35168079     0.20700
H2782       H  0.91670917  0.91255922  0.35415858     0.19100
H2783       H  0.89883032  0.89251224  0.35419886     0.19000
H2784       H  0.89537334  0.95784356  0.35284289     0.14900
C2785       C  0.87546873  0.78463055  0.35894279     0.30300
C2786       C  0.88383287  0.77600366  0.35410746    -0.36000
C2787       C  0.88229212  0.76374358  0.35802071     0.16300
C2788       C  0.87330585  0.76026427  0.36631841     0.22100
C2789       C  0.86490254  0.76886044  0.37107855    -0.34200
C2790       C  0.86628667  0.78105024  0.36697624     0.16200
O2791       O  0.87498272  0.79652182  0.35630144    -0.26200
C2792       C  0.86526647  0.80054499  0.36261089     0.06000
C2793       C  0.85948118  0.79131285  0.36937003    -0.31100
O2794       O  0.87336302  0.74830100  0.36853748    -0.22900
C2795       C  0.88238204  0.74400603  0.36143850    -0.02900
C2796       C  0.88826459  0.75318886  0.35467665    -0.17300
H2797       H  0.89088477  0.77862164  0.34756566     0.20700
H2798       H  0.85762807  0.76618125  0.37734765     0.19100
H2799       H  0.85141273  0.79206195  0.37517653     0.19000
H2800       H  0.89571905  0.75219293  0.34813462     0.14900
C2801       C  0.61094661  0.87752235  0.35268407     0.30300
C2802       C  0.59805652  0.87848072  0.35265833    -0.36000
C2803       C  0.59248894  0.88002699  0.36421595     0.16300
C2804       C  0.59910830  0.88055828  0.37509224     0.22100
C2805       C  0.61202988  0.87966858  0.37511216    -0.34200
C2806       C  0.61761352  0.87814919  0.36352884     0.16200
O2807       O  0.61800603  0.87589349  0.34292948    -0.26200
C2808       C  0.62937065  0.87551283  0.34755345     0.06000
C2809       C  0.62969012  0.87687676  0.36032938    -0.31100
O2810       O  0.59194214  0.88175070  0.38486099    -0.22900
C2811       C  0.58059436  0.88202769  0.38015038    -0.02900
C2812       C  0.58040416  0.88102471  0.36734992    -0.17300
H2813       H  0.59272862  0.87797096  0.34421802     0.20700
H2814       H  0.61734784  0.88004156  0.38356517     0.19100
H2815       H  0.63763719  0.87683722  0.36638284     0.19000
H2816       H  0.57250432  0.88084918  0.36123802     0.14900
C2817       C  0.74776359  0.85510950  0.34055069     0.30300
C2818       C  0.75892491  0.84863657  0.34006155    -0.36000
C2819       C  0.76897618  0.85423130  0.34593526     0.16300
C2820       C  0.76823070  0.86554854  0.35172189     0.22100
C2821       C  0.75695225  0.87192179  0.35245180    -0.34200
C2822       C  0.74679553  0.86619489  0.34674666     0.16200
O2823       O  0.73737852  0.85180200  0.33517713    -0.26200
C2824       C  0.72954054  0.86074001  0.33814834     0.06000
C2825       C  0.73483208  0.86990730  0.34543248    -0.31100
O2826       O  0.77899757  0.86923482  0.35613944    -0.22900
C2827       C  0.78661393  0.86001841  0.35330218    -0.02900
C2828       C  0.78085395  0.85044252  0.34702421    -0.17300
H2829       H  0.75975249  0.83990620  0.33529162     0.20700
H2830       H  0.75617671  0.88076354  0.35701823     0.19100
H2831       H  0.73062420  0.87832260  0.34876366     0.19000
H2832       H  0.78491295  0.84200658  0.34355822     0.14900
C2833       C  0.64903440  0.86084726  0.06219211     0.30300
C2834       C  0.64926974  0.84884012  0.06701050    -0.36000
C2835       C  0.64918047  0.84790741  0.07990538     0.16300
C2836       C  0.64882990  0.85807421  0.08756099     0.22100
C2837       C  0.64858433  0.87009991  0.08273185    -0.34200
C2838       C  0.64873000  0.87104113  0.06981521     0.16200
O2839       O  0.64933674  0.86383912  0.05041466    -0.26200
C2840       C  0.64925160  0.87611460  0.05045858     0.06000
C2841       C  0.64887481  0.88111670  0.06227721    -0.31100
O2842       O  0.64914698  0.85503503  0.09935077    -0.22900
C2843       C  0.64973913  0.84276740  0.09922480    -0.02900
C2844       C  0.64976361  0.83783804  0.08737417    -0.17300
H2845       H  0.64966288  0.84079136  0.06111606     0.20700
H2846       H  0.64846212  0.87815377  0.08862963     0.19100
H2847       H  0.64884389  0.89074291  0.06492569     0.19000
H2848       H  0.65037346  0.82825315  0.08464596     0.14900
C2849       C  0.66394896  0.84871945  0.23948068     0.30300
C2850       C  0.65721912  0.85010663  0.22843221    -0.36000
C2851       C  0.66190578  0.84386446  0.21806526     0.16300
C2852       C  0.67236654  0.83663539  0.21864042     0.22100
C2853       C  0.67912635  0.83535164  0.22959752    -0.34200
C2854       C  0.67455066  0.84169566  0.23986236     0.16200
O2855       O  0.66128776  0.85364281  0.25032405    -0.26200
C2856       C  0.67039799  0.84979373  0.25766217     0.06000
C2857       C  0.67890523  0.84236229  0.25161030    -0.31100
O2858       O  0.67493423  0.83129652  0.20805105    -0.22900
C2859       C  0.66612303  0.83523687  0.20046357    -0.02900
C2860       C  0.65775113  0.84314398  0.20615127    -0.17300
H2861       H  0.64892514  0.85563271  0.22795789     0.20700
H2862       H  0.68737446  0.82975526  0.23009028     0.19100
H2863       H  0.68705787  0.83797193  0.25535281     0.19000
H2864       H  0.64965563  0.84744215  0.20218337     0.14900
C2865       C  0.68259758  0.73831599  0.13875105     0.30300
C2866       C  0.68013161  0.72648117  0.13404884    -0.36000
C2867       C  0.68702460  0.71677775  0.13921204     0.16300
C2868       C  0.69585631  0.71866200  0.14820939     0.22100
C2869       C  0.69823175  0.73042505  0.15296948    -0.34200
C2870       C  0.69124170  0.74005301  0.14795286     0.16200
O2871       O  0.67715085  0.74872144  0.13546298    -0.26200
C2872       C  0.68232398  0.75714448  0.14276772     0.06000
C2873       C  0.69113042  0.75225924  0.15071368    -0.31100
O2874       O  0.70144744  0.70840809  0.15152164    -0.22900
C2875       C  0.69604338  0.69977115  0.14470341    -0.02900
C2876       C  0.68694447  0.70439900  0.13689444    -0.17300
H2877       H  0.67328813  0.72494060  0.12693440     0.20700
H2878       H  0.70503494  0.73195655  0.16012707     0.19100
H2879       H  0.69661324  0.75700880  0.15758185     0.19000
H2880       H  0.68132854  0.69942061  0.13030342     0.14900
C2881       C  0.18454699  0.63330012  0.58669091     0.30300
C2882       C  0.18280848  0.62133025  0.58204625    -0.36000
C2883       C  0.18445949  0.61986459  0.56929375     0.16300
C2884       C  0.18754921  0.62952929  0.56161061     0.22100
C2885       C  0.18926349  0.64152177  0.56625026    -0.34200
C2886       C  0.18764916  0.64297751  0.57902583     0.16200
O2887       O  0.18349822  0.63671069  0.59832627    -0.26200
C2888       C  0.18593493  0.64874713  0.59815586     0.06000
C2889       C  0.18858713  0.65315829  0.58637947    -0.31100
O2890       O  0.18867092  0.62604881  0.54999604    -0.22900
C2891       C  0.18632582  0.61398178  0.55024289    -0.02900
C2892       C  0.18363259  0.60963613  0.56201335    -0.17300
H2893       H  0.18037858  0.61367704  0.58797825     0.20700
H2894       H  0.19171417  0.64917080  0.56032040     0.19100
H2895       H  0.19084070  0.66248941  0.58363509     0.19000
H2896       H  0.18139324  0.60031412  0.56479874     0.14900
C2897       C  0.44638557  0.87543939  0.63823472     0.30300
C2898       C  0.45065103  0.87500721  0.62599217    -0.36000
C2899       C  0.46348164  0.87595080  0.62444639     0.16300
C2900       C  0.47149160  0.87725780  0.63427483     0.22100
C2901       C  0.46724304  0.87771026  0.64644757    -0.34200
C2902       C  0.45448781  0.87671088  0.64798573     0.16200
O2903       O  0.43482149  0.87450291  0.64192479    -0.26200
C2904       C  0.43561607  0.87511812  0.65418532     0.06000
C2905       C  0.44762325  0.87650128  0.65843478    -0.31100
O2906       O  0.48309158  0.87783946  0.63082688    -0.22900
C2907       C  0.48259207  0.87691633  0.61861149    -0.02900
C2908       C  0.47062187  0.87571972  0.61408488    -0.17300
H2909       H  0.44443357  0.87391032  0.61824824     0.20700
H2910       H  0.47347507  0.87865413  0.65420153     0.19100
H2911       H  0.45084645  0.87717081  0.66786739     0.19000
H2912       H  0.46764174  0.87475500  0.60459890     0.14900
C2913       C  0.16845068  0.93459310  0.65847495     0.30300
C2914       C  0.18057818  0.93014471  0.65773071    -0.36000
C2915       C  0.18191304  0.91727964  0.65727098     0.16300
C2916       C  0.17201633  0.90929710  0.65760453     0.22100
C2917       C  0.15986507  0.91375675  0.65835376    -0.34200
C2918       C  0.15851493  0.92665443  0.65873196     0.16200
O2919       O  0.16510772  0.94628894  0.65882746    -0.26200
C2920       C  0.15285046  0.94590080  0.65926825     0.06000
C2921       C  0.14822564  0.93391042  0.65923515    -0.31100
O2922       O  0.17542631  0.89760490  0.65696703    -0.22900
C2923       C  0.18766637  0.89812387  0.65617113    -0.02900
C2924       C  0.19219209  0.91014006  0.65631734    -0.17300
H2925       H  0.18842725  0.93629626  0.65742822     0.20700
H2926       H  0.15201237  0.90760721  0.65852685     0.19100
H2927       H  0.13869832  0.93097644  0.65950556     0.19000
H2928       H  0.20167076  0.91318799  0.65575197     0.14900
C2929       C  0.31829876  0.85421683  0.66486522     0.30300
C2930       C  0.30779897  0.84672252  0.66459982    -0.36000
C2931       C  0.29737331  0.85182591  0.65893922     0.16300
C2932       C  0.29715433  0.86360513  0.65409271     0.22100
C2933       C  0.30774927  0.87106436  0.65419904    -0.34200
C2934       C  0.31829494  0.86584617  0.65965399     0.16200
O2935       O  0.32897781  0.85130092  0.66985305    -0.26200
C2936       C  0.33600851  0.86108203  0.66763725     0.06000
C2937       C  0.32990200  0.87041991  0.66126483    -0.31100
O2938       O  0.28619746  0.86662540  0.64968453    -0.22900
C2939       C  0.27944116  0.85654401  0.65155946    -0.02900
C2940       C  0.28593722  0.84704914  0.65722995    -0.17300
H2941       H  0.30775561  0.83755384  0.66856023     0.20700
H2942       H  0.30776226  0.88027423  0.65033880     0.19100
H2943       H  0.33342307  0.87934047  0.65849709     0.19000
H2944       H  0.28260964  0.83805730  0.66001003     0.14900
C2945       C  0.19259038  0.75646210  0.64033213     0.30300
C2946       C  0.20067112  0.76545648  0.63581132    -0.36000
C2947       C  0.19908887  0.77739459  0.64048544     0.16300
C2948       C  0.19004726  0.78040987  0.64889706     0.22100
C2949       C  0.18197255  0.77135813  0.65349739    -0.34200
C2950       C  0.18369347  0.75931686  0.64895760     0.16200
O2951       O  0.19266234  0.74467429  0.63736544    -0.26200
C2952       C  0.18379094  0.73981230  0.64426158     0.06000
C2953       C  0.17790156  0.74847270  0.65170655    -0.31100
O2954       O  0.19044657  0.79217526  0.65213924    -0.22900
C2955       C  0.19996607  0.79664719  0.64580598    -0.02900
C2956       C  0.20565804  0.78784997  0.63842761    -0.17300
H2957       H  0.20784351  0.76325084  0.62924773     0.20700
H2958       H  0.17499535  0.77350261  0.66028615     0.19100
H2959       H  0.17046900  0.74698539  0.65817976     0.19000
H2960       H  0.21360577  0.78896565  0.63251547     0.14900
C2961       C  0.39227747  0.85159114  0.92128282     0.30300
C2962       C  0.39337672  0.85120548  0.93416964    -0.36000
C2963       C  0.39343971  0.86262337  0.94023683     0.16300
C2964       C  0.39249710  0.87374158  0.93410955     0.22100
C2965       C  0.39145922  0.87413995  0.92114180    -0.34200
C2966       C  0.39141501  0.86265538  0.91503247     0.16200
O2967       O  0.39191553  0.84195107  0.91386851    -0.26200
C2968       C  0.39088877  0.84681262  0.90263866     0.06000
C2969       C  0.39054697  0.85968656  0.90278110    -0.31100
O2970       O  0.39258030  0.88327587  0.94176579    -0.22900
C2971       C  0.39356888  0.87813226  0.95292214    -0.02900
C2972       C  0.39416577  0.86531804  0.95246624    -0.17300
H2973       H  0.39406647  0.84257075  0.93914275     0.20700
H2974       H  0.39069055  0.88277172  0.91617656     0.19100
H2975       H  0.38970567  0.86591881  0.89502024     0.19000
H2976       H  0.39493733  0.85887599  0.96005889     0.14900
C2977       C  0.39798117  0.84119982  0.78482669     0.30300
C2978       C  0.40181455  0.85017234  0.77625931    -0.36000
C2979       C  0.39945191  0.84751368  0.76376701     0.16300
C2980       C  0.39348472  0.83689665  0.76004181     0.22100
C2981       C  0.38981012  0.82790256  0.76854826    -0.34200
C2982       C  0.39236992  0.83044958  0.78095166     0.16200
O2983       O  0.39936567  0.84161332  0.79695565    -0.26200
C2984       C  0.39471651  0.83090187  0.80080380     0.06000
C2985       C  0.39025674  0.82361934  0.79123066    -0.31100
O2986       O  0.39170954  0.83646679  0.74803122    -0.22900
C2987       C  0.39680460  0.84682000  0.74390740    -0.02900
C2988       C  0.40185262  0.85405354  0.75325544    -0.17300
H2989       H  0.40634936  0.85859264  0.77911924     0.20700
H2990       H  0.38526618  0.81948530  0.76568657     0.19100
H2991       H  0.38607624  0.81457015  0.79176871     0.19000
H2992       H  0.40621961  0.86299283  0.75245113     0.14900
C2993       C  0.39708967  0.58505255  0.84467346     0.30300
C2994       C  0.40915527  0.58046585  0.84608246    -0.36000
C2995       C  0.41046923  0.56755638  0.84555856     0.16300
C2996       C  0.40058939  0.55974469  0.84373962     0.22100
C2997       C  0.38858747  0.56431828  0.84226238    -0.34200
C2998       C  0.38728005  0.57716951  0.84281397     0.16200
O2999       O  0.39360870  0.59673778  0.84530199    -0.26200
C3000       C  0.38141255  0.59628780  0.84381435     0.06000
C3001       C  0.37701262  0.58434065  0.84218876    -0.31100
O3002       O  0.40378903  0.54801308  0.84388827    -0.22900
C3003       C  0.41589954  0.54822553  0.84582446    -0.02900
C3004       C  0.42058753  0.56015074  0.84691492    -0.17300
H3005       H  0.41693152  0.58651340  0.84767562     0.20700
H3006       H  0.38076885  0.55825295  0.84096733     0.19100
H3007       H  0.36757776  0.58132217  0.84101118     0.19000
H3008       H  0.43001096  0.56293956  0.84863941     0.14900
C3009       C  0.38021818  0.73478382  0.85707330     0.30300
C3010       C  0.38176743  0.72325102  0.85137519    -0.36000
C3011       C  0.37471823  0.71350995  0.85615545     0.16300
C3012       C  0.36650106  0.71503185  0.86573078     0.22100
C3013       C  0.36506878  0.72655018  0.87154936    -0.34200
C3014       C  0.37231506  0.73625907  0.86691888     0.16200
O3015       O  0.38566741  0.74518767  0.85386720    -0.26200
C3016       C  0.38137888  0.75344138  0.86188251     0.06000
C3017       C  0.37309118  0.74838869  0.87028060    -0.31100
O3018       O  0.36063210  0.70470370  0.86849129    -0.22900
C3019       C  0.36532634  0.69642092  0.86071876    -0.02900
C3020       C  0.37414375  0.70138861  0.85285864    -0.17300
H3021       H  0.38801534  0.72196872  0.84371436     0.20700
H3022       H  0.35873647  0.72785670  0.87913569     0.19100
H3023       H  0.36805505  0.75306578  0.87750662     0.19000
H3024       H  0.37924661  0.69676862  0.84564183     0.14900
C3025       C  0.11977509  0.65206292  0.86397065     0.30300
C3026       C  0.11501336  0.65194392  0.87604083    -0.36000
C3027       C  0.10214986  0.65066517  0.87706250     0.16300
C3028       C  0.09454926  0.64952343  0.86689946     0.22100
C3029       C  0.09929075  0.64966887  0.85487581    -0.34200
C3030       C  0.11209288  0.65102448  0.85386225     0.16200
O3031       O  0.13150033  0.65305735  0.86081153    -0.26200
C3032       C  0.13127638  0.65273150  0.84851714     0.06000
C3033       C  0.11943365  0.65150035  0.84371972    -0.31100
O3034       O  0.08284070  0.64841493  0.86990439    -0.22900
C3035       C  0.08284707  0.64888230  0.88217139    -0.02900
C3036       C  0.09462219  0.65027440  0.88715715    -0.17300
H3037       H  0.12091388  0.65278868  0.88405987     0.20700
H3038       H  0.09339264  0.64880475  0.84685511     0.19100
H3039       H  0.11663701  0.65086080  0.83415062     0.19000
H3040       H  0.09724205  0.65090902  0.89677598     0.14900
C3041       C  0.24758402  0.63987275  0.84531332     0.30300
C3042       C  0.25678771  0.64513724  0.85276379    -0.36000
C3043       C  0.26870122  0.64029016  0.85134425     0.16300
C3044       C  0.27135306  0.63080273  0.84328197     0.22100
C3045       C  0.26216700  0.62556954  0.83581102    -0.34200
C3046       C  0.25030190  0.63053655  0.83709653     0.16200
O3047       O  0.23592756  0.64333471  0.84472691    -0.26200
C3048       C  0.23117463  0.63621305  0.83591951     0.06000
C3049       C  0.23969190  0.62808562  0.83084862    -0.31100
O3050       O  0.28316503  0.62791918  0.84320372    -0.22900
C3051       C  0.28817385  0.63571841  0.85125539    -0.02900
C3052       C  0.27961287  0.64363667  0.85660396    -0.17300
H3053       H  0.25485306  0.65267112  0.85901628     0.20700
H3054       H  0.26418877  0.61833362  0.82924207     0.19100
H3055       H  0.23830984  0.62150434  0.82346661     0.19000
H3056       H  0.28122743  0.65093333  0.86322478     0.14900
C3057       C  0.16506678  0.65428589  0.73931039     0.30300
C3058       C  0.15957275  0.66160876  0.73017348    -0.36000
C3059       C  0.16326465  0.65925105  0.71803172     0.16300
C3060       C  0.17165743  0.65018521  0.71498425     0.22100
C3061       C  0.17717965  0.64282745  0.72416481    -0.34200
C3062       C  0.17362537  0.64533054  0.73638539     0.16200
O3063       O  0.16332886  0.65535868  0.75128425    -0.26200
C3064       C  0.17096072  0.64708717  0.75617421     0.06000
C3065       C  0.17762855  0.64055725  0.74735470    -0.31100
O3066       O  0.17418146  0.65004878  0.70304927    -0.22900
C3067       C  0.16737290  0.65922147  0.69847822    -0.02900
C3068       C  0.16039693  0.66522157  0.70738926    -0.17300
H3069       H  0.15313118  0.66889146  0.73241493     0.20700
H3070       H  0.18403113  0.63591565  0.72197522     0.19100
H3071       H  0.18451823  0.63348096  0.74882539     0.19000
H3072       H  0.15441327  0.67313680  0.70625555     0.14900
C3073       C  0.61532376  0.13346621  0.65260691     0.30300
C3074       C  0.60242626  0.13249294  0.65251802    -0.36000
C3075       C  0.59673767  0.13303081  0.64089090     0.16300
C3076       C  0.60326402  0.13443876  0.63007028     0.22100
C3077       C  0.61618517  0.13536331  0.63015704    -0.34200
C3078       C  0.62188893  0.13478449  0.64179627     0.16200
O3079       O  0.62248061  0.13336672  0.66246366    -0.26200
C3080       C  0.63380777  0.13454900  0.65793160     0.06000
C3081       C  0.63400816  0.13544654  0.64511434    -0.31100
O3082       O  0.59603033  0.13480840  0.62025028    -0.22900
C3083       C  0.58472004  0.13361818  0.62484816    -0.02900
C3084       C  0.58462185  0.13247381  0.63764615    -0.17300
H3085       H  0.59718548  0.13144772  0.66093727     0.20700
H3086       H  0.62142027  0.13648767  0.62174552     0.19100
H3087       H  0.64190143  0.13659922  0.63913958     0.19000
H3088       H  0.57677283  0.13141688  0.64369552     0.14900
C3089       C  0.68167168  0.41652372  0.86344078     0.30300
C3090       C  0.68124088  0.42939454  0.86213075    -0.36000
C3091       C  0.66952377  0.43481481  0.86288900     0.16300
C3092       C  0.65889634  0.42807054  0.86469233     0.22100
C3093       C  0.65933037  0.41516200  0.86600600    -0.34200
C3094       C  0.67109120  0.40973332  0.86536228     0.16200
O3095       O  0.69168503  0.40961422  0.86321824    -0.26200
C3096       C  0.68751403  0.39822065  0.86508523     0.06000
C3097       C  0.67476059  0.39773403  0.86648939    -0.31100
O3098       O  0.64894668  0.43512004  0.86521056    -0.22900
C3099       C  0.65330038  0.44653055  0.86379258    -0.02900
C3100       C  0.66603987  0.44685615  0.86230975    -0.17300
H3101       H  0.68949037  0.43482550  0.86074049     0.20700
H3102       H  0.65109961  0.40974604  0.86754564     0.19100
H3103       H  0.66903777  0.38972373  0.86810958     0.19000
H3104       H  0.67191467  0.45481855  0.86103359     0.14900
C3105       C  0.65660679  0.12132976  0.93495742     0.30300
C3106       C  0.65604484  0.12183175  0.92198185    -0.36000
C3107       C  0.65702287  0.13364543  0.91665912     0.16300
C3108       C  0.65843753  0.14419650  0.92364434     0.22100
C3109       C  0.65892348  0.14370424  0.93655515    -0.34200
C3110       C  0.65796710  0.13194548  0.94184385     0.16200
O3111       O  0.65615728  0.11129508  0.94192117    -0.26200
C3112       C  0.65722355  0.11559478  0.95340324     0.06000
C3113       C  0.65836464  0.12837993  0.95385701    -0.31100
O3114       O  0.65959925  0.15421215  0.91685146    -0.22900
C3115       C  0.65891548  0.15010770  0.90531061    -0.02900
C3116       C  0.65726764  0.13736652  0.90460584    -0.17300
H3117       H  0.65507998  0.11359215  0.91642806     0.20700
H3118       H  0.66014088  0.15192083  0.94209692     0.19100
H3119       H  0.65945712  0.13423121  0.96187113     0.19000
H3120       H  0.65666054  0.13166140  0.89643568     0.14900
C3121       C  0.70026684  0.25695371  0.86864854     0.30300
C3122       C  0.70841252  0.26606707  0.86455135    -0.36000
C3123       C  0.70602943  0.27806385  0.86864500     0.16300
C3124       C  0.69619828  0.28103723  0.87613478     0.22100
C3125       C  0.68809502  0.27183462  0.88040387    -0.34200
C3126       C  0.69059759  0.25971903  0.87643219     0.16200
O3127       O  0.70064627  0.24521304  0.86558930    -0.26200
C3128       C  0.69121095  0.24025791  0.87160037     0.06000
C3129       C  0.68465056  0.24881065  0.87859511    -0.31100
O3130       O  0.69576114  0.29297847  0.87868806    -0.22900
C3131       C  0.70555878  0.29756568  0.87287109    -0.02900
C3132       C  0.71224219  0.28869417  0.86651134    -0.17300
H3133       H  0.71607846  0.26394895  0.85853956     0.20700
H3134       H  0.68040083  0.27396012  0.88637390     0.19100
H3135       H  0.67646580  0.24728704  0.88407517     0.19000
H3136       H  0.72052312  0.28991640  0.86109711     0.14900
C3137       C  0.67312113  0.15909997  0.78965917     0.30300
C3138       C  0.66650939  0.15324237  0.78015035    -0.36000
C3139       C  0.67152372  0.15429299  0.76825873     0.16300
C3140       C  0.68236866  0.16053410  0.76597140     0.22100
C3141       C  0.68892078  0.16642118  0.77542940    -0.34200
C3142       C  0.68383634  0.16551130  0.78724383     0.16200
O3143       O  0.67003300  0.15955013  0.80142473    -0.26200
C3144       C  0.67882788  0.16644403  0.80653167     0.06000
C3145       C  0.68764455  0.17040901  0.79814259    -0.31100
O3146       O  0.68546922  0.16032743  0.75425514    -0.22900
C3147       C  0.67646745  0.15397138  0.74887964    -0.02900
C3148       C  0.66748404  0.14998413  0.75711868    -0.17300
H3149       H  0.65800874  0.14832575  0.78188269     0.20700
H3150       H  0.69734429  0.17146321  0.77367091     0.19100
H3151       H  0.69564609  0.17613330  0.79982125     0.19000
H3152       H  0.65928298  0.14463178  0.75520043     0.14900
C3153       C  0.95640012  0.33975934  0.85986417     0.30300
C3154       C  0.96923072  0.33805069  0.85983612    -0.36000
C3155       C  0.97498180  0.33770427  0.87144791     0.16300
C3156       C  0.96857771  0.33890177  0.88236573     0.22100
C3157       C  0.95573011  0.34057907  0.88239085    -0.34200
C3158       C  0.94997481  0.34099453  0.87076596     0.16200
O3159       O  0.94919672  0.34054958  0.85005888    -0.26200
C3160       C  0.93799172  0.34236685  0.85471617     0.06000
C3161       C  0.93792767  0.34272120  0.86755950    -0.31100
O3162       O  0.97586844  0.33849193  0.89214981    -0.22900
C3163       C  0.98709636  0.33702348  0.88742468    -0.02900
C3164       C  0.98707426  0.33645809  0.87458824    -0.17300
H3165       H  0.97438830  0.33716668  0.85134746     0.20700
H3166       H  0.95059497  0.34161465  0.89087433     0.19100
H3167       H  0.93015266  0.34408554  0.87364234     0.19000
H3168       H  0.99484590  0.33540178  0.86844019     0.14900
C3169       C  0.82212923  0.35812179  0.85036150     0.30300
C3170       C  0.81347598  0.35289600  0.85842566    -0.36000
C3171       C  0.80121504  0.35671771  0.85683737     0.16300
C3172       C  0.79770743  0.36531648  0.84811035     0.22100
C3173       C  0.80635931  0.37050035  0.83998585    -0.34200
C3174       C  0.81859666  0.36645983  0.84139202     0.16200
O3175       O  0.83398849  0.35543528  0.84987977    -0.26200
C3176       C  0.83810405  0.36199966  0.84036638     0.06000
C3177       C  0.82892645  0.36901069  0.83470819    -0.31100
O3178       O  0.78569587  0.36735373  0.84811111    -0.22900
C3179       C  0.78145497  0.35982213  0.85683438    -0.02900
C3180       C  0.79069565  0.35296932  0.86254397    -0.17300
H3181       H  0.81607460  0.34608324  0.86525589     0.20700
H3182       H  0.80368715  0.37698384  0.83286880     0.19100
H3183       H  0.82972958  0.37496693  0.82673263     0.19000
H3184       H  0.78976485  0.34612172  0.86975320     0.14900
C3185       C  0.87922355  0.37530910  0.57302888     0.30300
C3186       C  0.87978412  0.37578288  0.58599273    -0.36000
C3187       C  0.87945151  0.36435970  0.59214305     0.16300
C3188       C  0.87861741  0.35327795  0.58593060     0.22100
C3189       C  0.87809707  0.35280044  0.57301840    -0.34200
C3190       C  0.87843484  0.36418039  0.56690118     0.16200
O3191       O  0.87941567  0.38481757  0.56538602    -0.26200
C3192       C  0.87875808  0.37967190  0.55423870     0.06000
C3193       C  0.87813342  0.36685660  0.55465072    -0.31100
O3194       O  0.87849701  0.34371414  0.59341945    -0.22900
C3195       C  0.87927825  0.34866004  0.60462311    -0.02900
C3196       C  0.87990208  0.36149726  0.60442275    -0.17300
H3197       H  0.88045199  0.38443468  0.59092750     0.20700
H3198       H  0.87749338  0.34414280  0.56808100     0.19100
H3199       H  0.87755625  0.36042456  0.54703814     0.19000
H3200       H  0.88066450  0.36776660  0.61215401     0.14900
C3201       C  0.89231234  0.33768218  0.72127702     0.30300
C3202       C  0.88705419  0.34502256  0.73051840    -0.36000
C3203       C  0.89142869  0.34300973  0.74252980     0.16300
C3204       C  0.90046562  0.33446580  0.74529136     0.22100
C3205       C  0.90562903  0.32700284  0.73605910    -0.34200
C3206       C  0.90114069  0.32891939  0.72404502     0.16200
O3207       O  0.88954144  0.33800200  0.70942552    -0.26200
C3208       C  0.89658326  0.32923547  0.70454458     0.06000
C3209       C  0.90395101  0.32323619  0.71320602    -0.31100
O3210       O  0.90320759  0.33422418  0.75716773    -0.22900
C3211       C  0.89572676  0.34264021  0.76205481    -0.02900
C3212       C  0.88818438  0.34836315  0.75338275    -0.17300
H3213       H  0.87999827  0.35179594  0.72849315     0.20700
H3214       H  0.91260015  0.32014771  0.73810369     0.19100
H3215       H  0.91043666  0.31579630  0.71171338     0.19000
H3216       H  0.88132375  0.35545996  0.75485996     0.14900
C3217       C  0.90126470  0.06107577  0.64830718     0.30300
C3218       C  0.88916377  0.06556102  0.64792763    -0.36000
C3219       C  0.88787023  0.07823897  0.64584227     0.16300
C3220       C  0.89778891  0.08604203  0.64427552     0.22100
C3221       C  0.90995223  0.08152919  0.64460529    -0.34200
C3222       C  0.91125448  0.06878198  0.64667467     0.16200
O3223       O  0.90450359  0.04953010  0.65021181    -0.26200
C3224       C  0.91674320  0.04974828  0.64979406     0.06000
C3225       C  0.92149670  0.06148831  0.64760984    -0.31100
O3226       O  0.89435543  0.09763834  0.64268339    -0.22900
C3227       C  0.88208721  0.09718848  0.64319766    -0.02900
C3228       C  0.87757369  0.08534431  0.64511634    -0.17300
H3229       H  0.88129114  0.05957331  0.64922343     0.20700
H3230       H  0.91782827  0.08753025  0.64340344     0.19100
H3231       H  0.93105349  0.06423460  0.64685495     0.19000
H3232       H  0.86808961  0.08240464  0.64603227     0.14900
C3233       C  0.88043420  0.21413314  0.63940308     0.30300
C3234       C  0.88793314  0.22277253  0.64547333    -0.36000
C3235       C  0.88638070  0.23511893  0.64189601     0.16300
C3236       C  0.87820513  0.23868782  0.63278831     0.22100
C3237       C  0.87070010  0.23006390  0.62673062    -0.34200
C3238       C  0.87205730  0.21776298  0.63049947     0.16200
O3239       O  0.87973830  0.20223783  0.64189923    -0.26200
C3240       C  0.87068805  0.19825931  0.63462338     0.06000
C3241       C  0.86555956  0.20750159  0.62734194    -0.31100
O3242       O  0.87794112  0.25074021  0.63120904    -0.22900
C3243       C  0.88595720  0.25496705  0.63949152    -0.02900
C3244       C  0.89148913  0.24567325  0.64641981    -0.17300
H3245       H  0.89422105  0.22010796  0.65276881     0.20700
H3246       H  0.86396944  0.23281145  0.61987356     0.19100
H3247       H  0.85789062  0.20681455  0.62097302     0.19000
H3248       H  0.89811035  0.24658151  0.65384755     0.14900
C3249       C  0.77299834  0.13494587  0.65592528     0.30300
C3250       C  0.76158395  0.12882012  0.65541143    -0.36000
C3251       C  0.75196735  0.13419163  0.66222417     0.16300
C3252       C  0.75358300  0.14467782  0.66927141     0.22100
C3253       C  0.76491665  0.15084202  0.66969136    -0.34200
C3254       C  0.77440910  0.14565257  0.66267396     0.16200
O3255       O  0.78321800  0.13173259  0.65013592    -0.26200
C3256       C  0.79114836  0.14064021  0.65308403     0.06000
C3257       C  0.78614956  0.14954783  0.66080908    -0.31100
O3258       O  0.74343852  0.14810031  0.67496287    -0.22900
C3259       C  0.73511852  0.13984296  0.67137627    -0.02900
C3260       C  0.73986531  0.13096528  0.66341585    -0.17300
H3261       H  0.76025219  0.12056366  0.64996193     0.20700
H3262       H  0.76619445  0.15920817  0.67498712     0.19100
H3263       H  0.79057149  0.15767657  0.66456150     0.19000
H3264       H  0.73511435  0.12325845  0.65920739     0.14900
C3265       C  0.87860928  0.63557993  0.58641107     0.30300
C3266       C  0.87854209  0.62335156  0.58206147    -0.36000
C3267       C  0.87853340  0.62190103  0.56916896     0.16300
C3268       C  0.87858688  0.63180582  0.56115674     0.22100
C3269       C  0.87855266  0.64397898  0.56548711    -0.34200
C3270       C  0.87855198  0.64541666  0.57832213     0.16200
O3271       O  0.87896493  0.63915547  0.59806876    -0.26200
C3272       C  0.87908536  0.65143511  0.59737529     0.06000
C3273       C  0.87880006  0.65580499  0.58531402    -0.31100
O3274       O  0.87876309  0.62840677  0.54949917    -0.22900
C3275       C  0.87878962  0.61614712  0.54997548    -0.02900
C3276       C  0.87863780  0.61155523  0.56198051    -0.17300
H3277       H  0.87861754  0.61553307  0.58827666     0.20700
H3278       H  0.87863435  0.65179784  0.55927030     0.19100
H3279       H  0.87898941  0.66526656  0.58212670     0.19000
H3280       H  0.87865969  0.60202396  0.56496164     0.14900
C3281       C  0.88641564  0.91963175  0.65658310     0.30300
C3282       C  0.88645154  0.93256581  0.65668037    -0.36000
C3283       C  0.89807594  0.93819823  0.65681261     0.16300
C3284       C  0.90895593  0.93159709  0.65680021     0.22100
C3285       C  0.90891902  0.91862831  0.65656228    -0.34200
C3286       C  0.89726543  0.91297629  0.65647485     0.16200
O3287       O  0.87657388  0.91251204  0.65674404    -0.26200
C3288       C  0.88113972  0.90112013  0.65670678     0.06000
C3289       C  0.89397125  0.90083120  0.65650556    -0.31100
O3290       O  0.91876428  0.93881128  0.65725607    -0.22900
C3291       C  0.91407466  0.95017043  0.65756249    -0.02900
C3292       C  0.90125124  0.95032083  0.65726877    -0.17300
H3293       H  0.87799787  0.93786996  0.65681017     0.20700
H3294       H  0.91737036  0.91332049  0.65660315     0.19100
H3295       H  0.89997952  0.89285755  0.65647567     0.19000
H3296       H  0.89513252  0.95820501  0.65749810     0.14900
C3297       C  0.88077832  0.76415151  0.63967447     0.30300
C3298       C  0.88364684  0.77592493  0.64423021    -0.36000
C3299       C  0.87607458  0.78559795  0.64013851     0.16300
C3300       C  0.86623285  0.78380380  0.63224747     0.22100
C3301       C  0.86348652  0.77205515  0.62752597    -0.34200
C3302       C  0.87117248  0.76240085  0.63148499     0.16200
O3303       O  0.88638022  0.75374635  0.64261575    -0.26200
C3304       C  0.88041470  0.74523533  0.63607920     0.06000
C3305       C  0.87090161  0.75009250  0.62893417    -0.31100
O3306       O  0.85997310  0.79405024  0.63018710    -0.22900
C3307       C  0.86599036  0.80254130  0.63671375    -0.02900
C3308       C  0.87612832  0.79781905  0.64302708    -0.17300
H3309       H  0.89115104  0.77741290  0.65065768     0.20700
H3310       H  0.85579137  0.77051868  0.62134118     0.19100
H3311       H  0.86448639  0.74520903  0.62303758     0.19000
H3312       H  0.88234649  0.80260020  0.64921166     0.14900
C3313       C  0.66980935  0.58308177  0.87278229     0.30300
C3314       C  0.65766935  0.57862242  0.87168888    -0.36000
C3315       C  0.65635343  0.56571567  0.87119791     0.16300
C3316       C  0.66630485  0.55779739  0.87178372     0.22100
C3317       C  0.67837962  0.56223531  0.87295908    -0.34200
C3318       C  0.67968888  0.57508288  0.87340032     0.16200
O3319       O  0.67328422  0.59477733  0.87291547    -0.26200
C3320       C  0.68554543  0.59420977  0.87360350     0.06000
C3321       C  0.69000037  0.58218082  0.87397697    -0.31100
O3322       O  0.66307882  0.54612089  0.87086959    -0.22900
C3323       C  0.65087904  0.54647083  0.86970167    -0.02900
C3324       C  0.64615152  0.55843109  0.86985750    -0.17300
H3325       H  0.64983362  0.58477503  0.87105980     0.20700
H3326       H  0.68623881  0.55608879  0.87329816     0.19100
H3327       H  0.69948058  0.57909177  0.87433482     0.19000
H3328       H  0.63664340  0.56132695  0.86897080     0.14900
C3329       C  0.95131861  0.64069645  0.85225365     0.30300
C3330       C  0.96419786  0.64187532  0.85218944    -0.36000
C3331       C  0.97018901  0.64000127  0.86351974     0.16300
C3332       C  0.96397243  0.63720797  0.87424925     0.22100
C3333       C  0.95104713  0.63595665  0.87430400    -0.34200
C3334       C  0.94503068  0.63780282  0.86291962     0.16200
O3335       O  0.94393185  0.64217867  0.84267797    -0.26200
C3336       C  0.93270518  0.64019393  0.84718605     0.06000
C3337       C  0.93281960  0.63741313  0.85975525    -0.31100
O3338       O  0.97147313  0.63614812  0.88384786    -0.22900
C3339       C  0.98263806  0.63823553  0.87915877    -0.02900
C3340       C  0.98235613  0.64064331  0.86654577    -0.17300
H3341       H  0.96920562  0.64416821  0.84387496     0.20700
H3342       H  0.94602980  0.63378261  0.88264342     0.19100
H3343       H  0.92505701  0.63545344  0.86569081     0.19000
H3344       H  0.98998552  0.64278672  0.86050234     0.14900
C3345       C  0.88850686  0.65575795  0.73582177     0.30300
C3346       C  0.88380517  0.65329456  0.72401096    -0.36000
C3347       C  0.88907423  0.65999343  0.71430037     0.16300
C3348       C  0.89813849  0.66874588  0.71609821     0.22100
C3349       C  0.90295582  0.67110463  0.72790871    -0.34200
C3350       C  0.89787302  0.66419184  0.73760311     0.16200
O3351       O  0.88489052  0.65056640  0.74619738    -0.26200
C3352       C  0.89217644  0.65556146  0.75472733     0.06000
C3353       C  0.90047135  0.66407939  0.74992465    -0.31100
O3354       O  0.90135569  0.67427376  0.70574092    -0.22900
C3355       C  0.89441615  0.66881239  0.69719435    -0.02900
C3356       C  0.88665443  0.65981211  0.70197714    -0.17300
H3357       H  0.87655232  0.64660941  0.72249821     0.20700
H3358       H  0.91015260  0.67784742  0.72943005     0.19100
H3359       H  0.90725477  0.66952493  0.75482776     0.19000
H3360       H  0.87993070  0.65424432  0.69712780     0.14900
C3361       C  0.81556457  0.63158126  0.84114029     0.30300
C3362       C  0.80728332  0.62715622  0.85006663    -0.36000
C3363       C  0.79483043  0.63026396  0.84826067     0.16300
C3364       C  0.79089714  0.63745157  0.83849276     0.22100
C3365       C  0.79910900  0.64168382  0.82948960    -0.34200
C3366       C  0.81147208  0.63838976  0.83117260     0.16200
O3367       O  0.82762864  0.62990931  0.84100613    -0.26200
C3368       C  0.83121539  0.63556939  0.83071623     0.06000
C3369       C  0.82154620  0.64096230  0.82422638    -0.31100
O3370       O  0.77903108  0.63989384  0.83894530    -0.22900
C3371       C  0.77521000  0.63401205  0.84899161    -0.02900
C3372       C  0.78459818  0.62775814  0.85514068    -0.17300
H3373       H  0.81033809  0.62174450  0.85789034     0.20700
H3374       H  0.79607914  0.64725056  0.82176251     0.19100
H3375       H  0.82191766  0.64616185  0.81570608     0.19000
H3376       H  0.78404854  0.62262532  0.86368916     0.14900
C3377       C  0.61864006  0.87189419  0.63875276     0.30300
C3378       C  0.61430014  0.87215365  0.62651956    -0.36000
C3379       C  0.60150155  0.87348506  0.62501005     0.16300
C3380       C  0.59354768  0.87453908  0.63486853     0.22100
C3381       C  0.59788223  0.87433693  0.64708049    -0.34200
C3382       C  0.61065186  0.87294454  0.64858325     0.16200
O3383       O  0.63018807  0.87032844  0.64231504    -0.26200
C3384       C  0.62957793  0.87032261  0.65458927     0.06000
C3385       C  0.61764652  0.87196057  0.65899200    -0.31100
O3386       O  0.58194045  0.87553225  0.63138146    -0.22900
C3387       C  0.58241330  0.87513054  0.61911532    -0.02900
C3388       C  0.59435942  0.87385857  0.61461999    -0.17300
H3389       H  0.62045242  0.87122183  0.61873195     0.20700
H3390       H  0.59170502  0.87505308  0.65487286     0.19100
H3391       H  0.61454261  0.87218025  0.66847059     0.19000
H3392       H  0.59733205  0.87323657  0.60511758     0.14900
C3393       C  0.74701245  0.86026466  0.65810308     0.30300
C3394       C  0.75583112  0.85490466  0.65027511    -0.36000
C3395       C  0.76807848  0.85874210  0.65206365     0.16300
C3396       C  0.77137281  0.86739715  0.66080761     0.22100
C3397       C  0.76259896  0.87265543  0.66869031    -0.34200
C3398       C  0.75042133  0.86867071  0.66704617     0.16200
O3399       O  0.73509388  0.85775647  0.65835869    -0.26200
C3400       C  0.73090713  0.86453305  0.66769709     0.06000
C3401       C  0.74003412  0.87145012  0.67345780    -0.31100
O3402       O  0.78331953  0.86958638  0.66097950    -0.22900
C3403       C  0.78780054  0.86215417  0.65232001    -0.02900
C3404       C  0.77874978  0.85515053  0.64647700    -0.17300
H3405       H  0.75335359  0.84807654  0.64342626     0.20700
H3406       H  0.76512813  0.87923249  0.67576393     0.19100
H3407       H  0.73914421  0.87750711  0.68134308     0.19000
H3408       H  0.77988211  0.84837190  0.63924015     0.14900
C3409       C  0.65782201  0.85568320  0.91377605     0.30300
C3410       C  0.65716434  0.86787058  0.91818309    -0.36000
C3411       C  0.65733400  0.86927925  0.93107382     0.16300
C3412       C  0.65804649  0.85936795  0.93904285     0.22100
C3413       C  0.65880422  0.84721937  0.93464313    -0.34200
C3414       C  0.65867105  0.84581972  0.92178693     0.16200
O3415       O  0.65762219  0.85218660  0.90210398    -0.26200
C3416       C  0.65838971  0.83992648  0.90266645     0.06000
C3417       C  0.65909491  0.83546977  0.91468625    -0.31100
O3418       O  0.65778916  0.86273039  0.95072323    -0.22900
C3419       C  0.65697731  0.87497607  0.95029242    -0.02900
C3420       C  0.65669208  0.87958639  0.93829572    -0.17300
H3421       H  0.65648359  0.87568799  0.91200480     0.20700
H3422       H  0.65936216  0.83939275  0.94082265     0.19100
H3423       H  0.65971744  0.82598729  0.91775654     0.19000
H3424       H  0.65594237  0.88909704  0.93534217     0.14900
C3425       C  0.68693003  0.71063287  0.86400612     0.30300
C3426       C  0.67987277  0.71978561  0.86982800    -0.36000
C3427       C  0.67952690  0.73131370  0.86393987     0.16300
C3428       C  0.68551192  0.73360212  0.85295052     0.22100
C3429       C  0.69261459  0.72447778  0.84715835    -0.34200
C3430       C  0.69316893  0.71303864  0.85318196     0.16200
O3431       O  0.68882622  0.69931250  0.86807961    -0.26200
C3432       C  0.69652466  0.69448844  0.85985508     0.06000
C3433       C  0.69957821  0.70261054  0.85040781    -0.31100
O3434       O  0.68409173  0.74507281  0.84916310    -0.22900
C3435       C  0.67723170  0.75025291  0.85790586    -0.02900
C3436       C  0.67411425  0.74213831  0.86734138    -0.17300
H3437       H  0.67518062  0.71810638  0.87846654     0.20700
H3438       H  0.69756988  0.72625499  0.83868714     0.19100
H3439       H  0.70565733  0.70104929  0.84265921     0.19000
H3440       H  0.66874546  0.74397677  0.87553975     0.14900
C3441       C  0.67269427  0.83554941  0.78446570     0.30300
C3442       C  0.68002728  0.83539736  0.77386386    -0.36000
C3443       C  0.67526726  0.84164299  0.76361304     0.16300
C3444       C  0.66397515  0.84751743  0.76368365     0.22100
C3445       C  0.65675028  0.84793514  0.77442907    -0.34200
C3446       C  0.66160763  0.84180534  0.78478685     0.16200
O3447       O  0.67506629  0.82964214  0.79480019    -0.26200
C3448       C  0.66552155  0.83231119  0.80196905     0.06000
C3449       C  0.65687749  0.83994767  0.79630735    -0.31100
O3450       O  0.66108703  0.85219390  0.75279622    -0.22900
C3451       C  0.67076100  0.84941105  0.74578819    -0.02900
C3452       C  0.67987439  0.84292183  0.75205365    -0.17300
H3453       H  0.68872638  0.83051426  0.77355185     0.20700
H3454       H  0.64788063  0.85250319  0.77463071     0.19100
H3455       H  0.64813731  0.84310293  0.79992374     0.19000
H3456       H  0.68850538  0.83939831  0.74851008     0.14900
loop_ 
_geom_bond_atom_site_label_1 
_geom_bond_atom_site_label_2 
_geom_bond_distance 
_geom_bond_site_symmetry_2 
_ccdc_geom_bond_type 
N1            N2   1.322       .  A
N1            C5   1.349       .  A
N1           Cu9   2.080       .  S
N2            C3   1.341       .  A
N2           Cu8   2.064       .  S
C3            C4   1.378       .  A
C3            H6   1.082       .  S
C4            C5   1.385       .  A
C4         C3448   1.466       .  S
C5            H7   1.082       .  S
Cu8          N11   2.064       .  S
Cu9          N19   2.081       .  S
Cu10         N12   2.084       .  S
Cu10         N18   2.086       .  S
N11          N12   1.322       .  A
N11          C15   1.343       .  A
N12          C13   1.348       .  A
C13          C14   1.386       .  A
C13          H16   1.082       .  S
C14          C15   1.380       .  A
C14        C3435   1.471       .  S
C15          H17   1.082       .  S
N18          N19   1.324       .  A
N18          C22   1.346       .  A
N19          C20   1.347       .  A
C20          C21   1.382       .  A
C20          H23   1.082       .  S
C21          C22   1.385       .  A
C21        C3416   1.475       .  S
C22          H24   1.082       .  S
N25          N26   1.322       .  A
N25          C29   1.350       .  A
N25         Cu33   2.090       .  S
N26          C27   1.342       .  A
N26         Cu32   2.062       .  S
C27          C28   1.379       .  A
C27          H30   1.082       .  S
C28          C29   1.386       .  A
C28        C3400   1.470       .  S
C29          H31   1.082       .  S
Cu32         N35   2.062       .  S
Cu33         N43   2.091       .  S
Cu34         N36   2.080       .  S
Cu34         N42   2.081       .  S
N35          N36   1.321       .  A
N35          C39   1.342       .  A
N36          C37   1.348       .  A
C37          C38   1.384       .  A
C37          H40   1.082       .  S
C38          C39   1.380       .  A
C38        C3451   1.469       .  S
C39          H41   1.082       .  S
N42          N43   1.325       .  A
N42          C46   1.346       .  A
N43          C44   1.348       .  A
C44          C45   1.384       .  A
C44          H47   1.082       .  S
C45          C46   1.384       .  A
C45        C3384   1.476       .  S
C46          H48   1.082       .  S
N49          N50   1.323       .  A
N49          C53   1.349       .  A
N49         Cu57   2.092       .  S
N50          C51   1.342       .  A
N50         Cu56   2.061       .  S
C51          C52   1.379       .  A
C51          H54   1.082       .  S
C52          C53   1.386       .  A
C52        C3368   1.471       .  S
C53          H55   1.082       .  S
Cu56         N59   2.060       .  S
Cu57         N67   2.094       .  S
Cu58         N60   2.089       .  S
Cu58         N66   2.091       .  S
N59          N60   1.321       .  A
N59          C63   1.344       .  A
N60          C61   1.349       .  A
C61          C62   1.387       .  A
C61          H64   1.082       .  S
C62          C63   1.380       .  A
C62        C3352   1.471       .  S
C63          H65   1.082       .  S
N66          N67   1.325       .  A
N66          C70   1.346       .  A
N67          C68   1.350       .  A
C68          C69   1.387       .  A
C68          H71   1.082       .  S
C69          C70   1.384       .  A
C69        C3336   1.480       .  S
C70          H72   1.082       .  S
N73          N74   1.322       .  A
N73          C77   1.347       .  A
N73         Cu81   2.084       .  S
N74          C75   1.343       .  A
N74         Cu80   2.062       .  S
C75          C76   1.381       .  A
C75          H78   1.082       .  S
C76          C77   1.384       .  A
C76        C3432   1.469       .  S
C77          H79   1.082       .  S
Cu80         N83   2.061       .  S
Cu81         N91   2.086       .  S
Cu82         N84   2.084       .  S
Cu82         N90   2.085       .  S
N83          N84   1.322       .  A
N83          C87   1.341       .  A
N84          C85   1.350       .  A
C85          C86   1.386       .  A
C85          H88   1.082       .  S
C86          C87   1.377       .  A
C86        C3371   1.467       .  S
C87          H89   1.082       .  S
N90          N91   1.324       .  A
N90          C94   1.345       .  A
N91          C92   1.349       .  A
C92          C93   1.384       .  A
C92          H95   1.082       .  S
C93          C94   1.385       .  A
C93        C3320   1.477       .  S
C94          H96   1.082       .  S
N97          N98   1.323       .  A
N97         C101   1.345       .  A
N97        Cu105   2.076       .  S
N98          C99   1.346       .  A
N98        Cu104   2.080       .  S
C99         C100   1.383       .  A
C99         H102   1.082       .  S
C100        C101   1.383       .  A
C100       C3307   1.472       .  S
C101        H103   1.082       .  S
Cu104       N107   2.080       .  S
Cu105       N115   2.075       .  S
Cu106       N108   2.076       .  S
Cu106       N114   2.076       .  S
N107        N108   1.323       .  A
N107        C111   1.347       .  A
N108        C109   1.345       .  A
C109        C110   1.382       .  A
C109        H112   1.082       .  S
C110        C111   1.384       .  A
C110       C3403   1.473       .  S
C111        H113   1.082       .  S
N114        N115   1.322       .  A
N114        C118   1.345       .  A
N115        C116   1.346       .  A
C116        C117   1.384       .  A
C116        H119   1.082       .  S
C117        C118   1.383       .  A
C117       C3288   1.473       .  S
C118        H120   1.082       .  S
N121        N122   1.324       .  A
N121        C125   1.346       .  A
N121       Cu129   2.082       .  S
N122        C123   1.346       .  A
N122       Cu128   2.077       .  S
C123        C124   1.381       .  A
C123        H126   1.082       .  S
C124        C125   1.384       .  A
C124       C3355   1.470       .  S
C125        H127   1.082       .  S
Cu128       N131   2.077       .  S
Cu129       N139   2.081       .  S
Cu130       N132   2.075       .  S
Cu130       N138   2.075       .  S
N131        N132   1.322       .  A
N131        C135   1.346       .  A
N132        C133   1.346       .  A
C133        C134   1.384       .  A
C133        H136   1.082       .  S
C134        C135   1.383       .  A
C134       C3304   1.472       .  S
C135        H137   1.082       .  S
N138        N139   1.322       .  A
N138        C142   1.343       .  A
N139        C140   1.349       .  A
C140        C141   1.385       .  A
C140        H143   1.082       .  S
C141        C142   1.383       .  A
C141       C3272   1.475       .  S
C142        H144   1.082       .  S
N145        N146   1.322       .  A
N145        C149   1.347       .  A
N145       Cu153   2.080       .  S
N146        C147   1.343       .  A
N146       Cu152   2.066       .  S
C147        C148   1.381       .  A
C147        H150   1.082       .  S
C148        C149   1.383       .  A
C148       C3240   1.468       .  S
C149        H151   1.082       .  S
Cu152       N155   2.066       .  S
Cu153       N163   2.082       .  S
Cu154       N156   2.083       .  S
Cu154       N162   2.085       .  S
N155        N156   1.322       .  A
N155        C159   1.342       .  A
N156        C157   1.349       .  A
C157        C158   1.385       .  A
C157        H160   1.082       .  S
C158        C159   1.381       .  A
C158       C3256   1.471       .  S
C159        H161   1.082       .  S
N162        N163   1.324       .  A
N162        C166   1.345       .  A
N163        C164   1.347       .  A
C164        C165   1.382       .  A
C164        H167   1.082       .  S
C165        C166   1.384       .  A
C165       C3227   1.474       .  S
C166        H168   1.082       .  S
N169        N170   1.325       .  A
N169        C173   1.348       .  A
N169       Cu177   2.093       .  S
N170        C171   1.344       .  A
N170       Cu176   2.071       .  S
C171        C172   1.380       .  A
C171        H174   1.082       .  S
C172        C173   1.385       .  A
C172       C3208   1.471       .  S
C173        H175   1.082       .  S
Cu176       N179   2.071       .  S
Cu177       N187   2.092       .  S
Cu178       N180   2.065       .  S
Cu178       N186   2.065       .  S
N179        N180   1.320       .  A
N179        C183   1.346       .  A
N180        C181   1.344       .  A
C181        C182   1.381       .  A
C181        H184   1.082       .  S
C182        C183   1.385       .  A
C182       C3243   1.469       .  S
C183        H185   1.082       .  S
N186        N187   1.323       .  A
N186        C190   1.341       .  A
N187        C188   1.351       .  A
C188        C189   1.389       .  A
C188        H191   1.082       .  S
C189        C190   1.379       .  A
C189       C3195   1.473       .  S
C190        H192   1.082       .  S
N193        N194   1.323       .  A
N193        C197   1.349       .  A
N193       Cu201   2.095       .  S
N194        C195   1.346       .  A
N194       Cu200   2.072       .  S
C195        C196   1.382       .  A
C195        H198   1.082       .  S
C196        C197   1.386       .  A
C196       C3176   1.475       .  S
C197        H199   1.082       .  S
Cu200       N203   2.072       .  S
Cu201       N211   2.096       .  S
Cu202       N204   2.077       .  S
Cu202       N210   2.077       .  S
N203        N204   1.322       .  A
N203        C207   1.343       .  A
N204        C205   1.347       .  A
C205        C206   1.384       .  A
C205        H208   1.082       .  S
C206        C207   1.383       .  A
C206       C3211   1.471       .  S
C207        H209   1.082       .  S
N210        N211   1.324       .  A
N210        C214   1.346       .  A
N211        C212   1.349       .  A
C212        C213   1.387       .  A
C212        H215   1.082       .  S
C213        C214   1.382       .  A
C213       C3160   1.478       .  S
C214        H216   1.082       .  S
N217        N218   1.323       .  A
N217        C221   1.347       .  A
N217       Cu225   2.080       .  S
N218        C219   1.344       .  A
N218       Cu224   2.072       .  S
C219        C220   1.382       .  A
C219        H222   1.082       .  S
C220        C221   1.383       .  A
C220       C3144   1.470       .  S
C221        H223   1.082       .  S
Cu224       N227   2.072       .  S
Cu225       N235   2.081       .  S
Cu226       N228   2.081       .  S
Cu226       N234   2.083       .  S
N227        N228   1.322       .  A
N227        C231   1.343       .  A
N228        C229   1.349       .  A
C229        C230   1.385       .  A
C229        H232   1.082       .  S
C230        C231   1.381       .  A
C230       C3128   1.471       .  S
C231        H233   1.082       .  S
N234        N235   1.323       .  A
N234        C238   1.345       .  A
N235        C236   1.348       .  A
C236        C237   1.385       .  A
C236        H239   1.082       .  S
C237        C238   1.383       .  A
C237       C3115   1.476       .  S
C238        H240   1.082       .  S
N241        N242   1.322       .  A
N241        C245   1.351       .  A
N241       Cu249   2.087       .  S
N242        C243   1.341       .  A
N242       Cu248   2.068       .  S
C243        C244   1.380       .  A
C243        H246   1.082       .  S
C244        C245   1.387       .  A
C244       C3131   1.473       .  S
C245        H247   1.082       .  S
Cu248       N251   2.068       .  S
Cu249       N259   2.089       .  S
Cu250       N252   2.085       .  S
Cu250       N258   2.086       .  S
N251        N252   1.321       .  A
N251        C255   1.345       .  A
N252        C253   1.348       .  A
C253        C254   1.385       .  A
C253        H256   1.082       .  S
C254        C255   1.383       .  A
C254       C3179   1.474       .  S
C255        H257   1.082       .  S
N258        N259   1.325       .  A
N258        C262   1.346       .  A
N259        C260   1.348       .  A
C260        C261   1.385       .  A
C260        H263   1.082       .  S
C261        C262   1.383       .  A
C261       C3096   1.476       .  S
C262        H264   1.082       .  S
N265        N266   1.321       .  A
N265        C269   1.348       .  A
N265       Cu273   2.083       .  S
N266        C267   1.342       .  A
N266       Cu272   2.060       .  S
C267        C268   1.379       .  A
C267        H270   1.082       .  S
C268        C269   1.386       .  A
C268       C3259   1.469       .  S
C269        H271   1.082       .  S
Cu272       N275   2.060       .  S
Cu273       N283   2.085       .  S
Cu274       N276   2.082       .  S
Cu274       N282   2.084       .  S
N275        N276   1.322       .  A
N275        C279   1.341       .  A
N276        C277   1.349       .  A
C277        C278   1.387       .  A
C277        H280   1.082       .  S
C278        C279   1.378       .  A
C278       C3147   1.469       .  S
C279        H281   1.082       .  S
N282        N283   1.324       .  A
N282        C286   1.346       .  A
N283        C284   1.347       .  A
C284        C285   1.385       .  A
C284        H287   1.082       .  S
C285        C286   1.382       .  A
C285       C3080   1.475       .  S
C286        H288   1.082       .  S
N289        N290   1.324       .  A
N289        C293   1.348       .  A
N289       Cu297   2.086       .  S
N290        C291   1.344       .  A
N290       Cu296   2.078       .  S
C291        C292   1.381       .  A
C291        H294   1.082       .  S
C292        C293   1.384       .  A
C292       C3048   1.471       .  S
C293        H295   1.082       .  S
Cu296       N299   2.077       .  S
Cu297       N307   2.086       .  S
Cu298       N300   2.075       .  S
Cu298       N306   2.075       .  S
N299        N300   1.321       .  A
N299        C303   1.348       .  A
N300        C301   1.344       .  A
C301        C302   1.382       .  A
C301        H304   1.082       .  S
C302        C303   1.385       .  A
C302       C3064   1.472       .  S
C303        H305   1.082       .  S
N306        N307   1.322       .  A
N306        C310   1.344       .  A
N307        C308   1.349       .  A
C308        C309   1.386       .  A
C308        H311   1.082       .  S
C309        C310   1.384       .  A
C309       C3032   1.477       .  S
C310        H312   1.082       .  S
N313        N314   1.323       .  A
N313        C317   1.348       .  A
N313       Cu321   2.092       .  S
N314        C315   1.347       .  A
N314       Cu320   2.077       .  S
C315        C316   1.383       .  A
C315        H318   1.082       .  S
C316        C317   1.387       .  A
C316       C3019   1.477       .  S
C317        H319   1.082       .  S
Cu320       N323   2.076       .  S
Cu321       N331   2.092       .  S
Cu322       N324   2.076       .  S
Cu322       N330   2.076       .  S
N323        N324   1.322       .  A
N323        C327   1.345       .  A
N324        C325   1.346       .  A
C325        C326   1.383       .  A
C325        H328   1.082       .  S
C326        C327   1.383       .  A
C326       C3051   1.472       .  S
C327        H329   1.082       .  S
N330        N331   1.323       .  A
N330        C334   1.344       .  A
N331        C332   1.350       .  A
C332        C333   1.386       .  A
C332        H335   1.082       .  S
C333        C334   1.384       .  A
C333       C3000   1.478       .  S
C334        H336   1.082       .  S
N337        N338   1.323       .  A
N337        C341   1.351       .  A
N337       Cu345   2.093       .  S
N338        C339   1.342       .  A
N338       Cu344   2.071       .  S
C339        C340   1.381       .  A
C339        H342   1.082       .  S
C340        C341   1.387       .  A
C340       C2984   1.475       .  S
C341        H343   1.082       .  S
Cu344       N347   2.071       .  S
Cu345       N355   2.094       .  S
Cu346       N348   2.095       .  S
Cu346       N354   2.096       .  S
N347        N348   1.321       .  A
N347        C351   1.346       .  A
N348        C349   1.350       .  A
C349        C350   1.389       .  A
C349        H352   1.082       .  S
C350        C351   1.382       .  A
C350       C3016   1.478       .  S
C351        H353   1.082       .  S
N354        N355   1.326       .  A
N354        C358   1.347       .  A
N355        C356   1.350       .  A
C356        C357   1.386       .  A
C356        H359   1.082       .  S
C357        C358   1.384       .  A
C357       C2968   1.480       .  S
C358        H360   1.082       .  S
N361        N362   1.322       .  A
N361        C365   1.351       .  A
N361       Cu369   2.093       .  S
N362        C363   1.342       .  A
N362       Cu368   2.066       .  S
C363        C364   1.381       .  A
C363        H366   1.082       .  S
C364        C365   1.387       .  A
C364       C2955   1.475       .  S
C365        H367   1.082       .  S
Cu368       N371   2.065       .  S
Cu369       N379   2.094       .  S
Cu370       N372   2.073       .  S
Cu370       N378   2.076       .  S
N371        N372   1.320       .  A
N371        C375   1.342       .  A
N372        C373   1.347       .  A
C373        C374   1.384       .  A
C373        H376   1.082       .  S
C374        C375   1.382       .  A
C374       C2939   1.470       .  S
C375        H377   1.082       .  S
N378        N379   1.325       .  A
N378        C382   1.344       .  A
N379        C380   1.349       .  A
C380        C381   1.385       .  A
C380        H383   1.082       .  S
C381        C382   1.382       .  A
C381       C2923   1.476       .  S
C382        H384   1.082       .  S
N385        N386   1.322       .  A
N385        C389   1.347       .  A
N385       Cu393   2.074       .  S
N386        C387   1.342       .  A
N386       Cu392   2.066       .  S
C387        C388   1.379       .  A
C387        H390   1.082       .  S
C388        C389   1.384       .  A
C388       C2936   1.466       .  S
C389        H391   1.082       .  S
Cu392       N395   2.066       .  S
Cu393       N403   2.076       .  S
Cu394       N396   2.082       .  S
Cu394       N402   2.084       .  S
N395        N396   1.321       .  A
N395        C399   1.342       .  A
N396        C397   1.349       .  A
C397        C398   1.386       .  A
C397        H400   1.082       .  S
C398        C399   1.379       .  A
C398       C2987   1.470       .  S
C399        H401   1.082       .  S
N402        N403   1.324       .  A
N402        C406   1.344       .  A
N403        C404   1.347       .  A
C404        C405   1.382       .  A
C404        H407   1.082       .  S
C405        C406   1.384       .  A
C405       C2904   1.472       .  S
C406        H408   1.082       .  S
N409        N410   1.323       .  A
N409        C413   1.350       .  A
N409       Cu417   2.088       .  S
N410        C411   1.342       .  A
N410       Cu416   2.070       .  S
C411        C412   1.381       .  A
C411        H414   1.082       .  S
C412        C413   1.387       .  A
C412       C3067   1.474       .  S
C413        H415   1.082       .  S
Cu416       N419   2.071       .  S
Cu417       N427   2.089       .  S
Cu418       N420   2.084       .  S
Cu418       N426   2.085       .  S
N419        N420   1.322       .  A
N419        C423   1.347       .  A
N420        C421   1.346       .  A
C421        C422   1.384       .  A
C421        H424   1.082       .  S
C422        C423   1.384       .  A
C422       C2952   1.473       .  S
C423        H425   1.082       .  S
N426        N427   1.324       .  A
N426        C430   1.348       .  A
N427        C428   1.347       .  A
C428        C429   1.384       .  A
C428        H431   1.082       .  S
C429        C430   1.385       .  A
C429       C2888   1.477       .  S
C430        H432   1.082       .  S
N433        N434   1.322       .  A
N433        C437   1.352       .  A
N433       Cu441   2.090       .  S
N434        C435   1.341       .  A
N434       Cu440   2.063       .  S
C435        C436   1.378       .  A
C435        H438   1.082       .  S
C436        C437   1.389       .  A
C436       C2859   1.473       .  S
C437        H439   1.082       .  S
Cu440       N443   2.063       .  S
Cu441       N451   2.092       .  S
Cu442       N444   2.072       .  S
Cu442       N450   2.074       .  S
N443        N444   1.320       .  A
N443        C447   1.341       .  A
N444        C445   1.348       .  A
C445        C446   1.385       .  A
C445        H448   1.082       .  S
C446        C447   1.382       .  A
C446       C2872   1.470       .  S
C447        H449   1.082       .  S
N450        N451   1.325       .  A
N450        C454   1.343       .  A
N451        C452   1.348       .  A
C452        C453   1.384       .  A
C452        H455   1.082       .  S
C453        C454   1.381       .  A
C453       C2843   1.472       .  S
C454        H456   1.082       .  S
N457        N458   1.322       .  A
N457        C461   1.348       .  A
N457       Cu465   2.076       .  S
N458        C459   1.344       .  A
N458       Cu464   2.075       .  S
C459        C460   1.381       .  A
C459        H462   1.082       .  S
C460        C461   1.384       .  A
C460       C2824   1.470       .  S
C461        H463   1.082       .  S
Cu464       N467   2.076       .  S
Cu465       N475   2.077       .  S
Cu466       N468   2.087       .  S
Cu466       N474   2.088       .  S
N467        N468   1.322       .  A
N467        C471   1.344       .  A
N468        C469   1.350       .  A
C469        C470   1.386       .  A
C469        H472   1.082       .  S
C470        C471   1.384       .  A
C470       C2856   1.477       .  S
C471        H473   1.082       .  S
N474        N475   1.324       .  A
N474        C478   1.347       .  A
N475        C476   1.346       .  A
C476        C477   1.383       .  A
C476        H479   1.082       .  S
C477        C478   1.384       .  A
C477       C2808   1.474       .  S
C478        H480   1.082       .  S
N481        N482   1.321       .  A
N481        C485   1.348       .  A
N481       Cu489   2.081       .  S
N482        C483   1.343       .  A
N482       Cu488   2.065       .  S
C483        C484   1.382       .  A
C483        H486   1.082       .  S
C484        C485   1.385       .  A
C484       C2792   1.472       .  S
C485        H487   1.082       .  S
Cu488       N491   2.065       .  S
Cu489       N499   2.083       .  S
Cu490       N492   2.088       .  S
Cu490       N498   2.090       .  S
N491        N492   1.322       .  A
N491        C495   1.341       .  A
N492        C493   1.351       .  A
C493        C494   1.387       .  A
C493        H496   1.082       .  S
C494        C495   1.380       .  A
C494       C2827   1.472       .  S
C495        H497   1.082       .  S
N498        N499   1.325       .  A
N498        C502   1.346       .  A
N499        C500   1.346       .  A
C500        C501   1.383       .  A
C500        H503   1.082       .  S
C501        C502   1.383       .  A
C501       C2776   1.474       .  S
C502        H504   1.082       .  S
N505        N506   1.324       .  A
N505        C509   1.350       .  A
N505       Cu513   2.088       .  S
N506        C507   1.340       .  A
N506       Cu512   2.068       .  S
C507        C508   1.379       .  A
C507        H510   1.082       .  S
C508        C509   1.386       .  A
C508       C2763   1.471       .  S
C509        H511   1.082       .  S
Cu512       N515   2.067       .  S
Cu513       N523   2.089       .  S
Cu514       N516   2.075       .  S
Cu514       N522   2.075       .  S
N515        N516   1.319       .  A
N515        C519   1.344       .  A
N516        C517   1.348       .  A
C517        C518   1.386       .  A
C517        H520   1.082       .  S
C518        C519   1.382       .  A
C518       C2747   1.473       .  S
C519        H521   1.082       .  S
N522        N523   1.324       .  A
N522        C526   1.341       .  A
N523        C524   1.351       .  A
C524        C525   1.386       .  A
C524        H527   1.082       .  S
C525        C526   1.381       .  A
C525       C2731   1.474       .  S
C526        H528   1.081       .  S
N529        N530   1.324       .  A
N529        C533   1.348       .  A
N529       Cu537   2.088       .  S
N530        C531   1.347       .  A
N530       Cu536   2.086       .  S
C531        C532   1.383       .  A
C531        H534   1.082       .  S
C532        C533   1.385       .  A
C532       C2744   1.476       .  S
C533        H535   1.082       .  S
Cu536       N539   2.086       .  S
Cu537       N547   2.087       .  S
Cu538       N540   2.076       .  S
Cu538       N546   2.076       .  S
N539        N540   1.323       .  A
N539        C543   1.348       .  A
N540        C541   1.345       .  A
C541        C542   1.381       .  A
C541        H544   1.082       .  S
C542        C543   1.385       .  A
C542       C2795   1.472       .  S
C543        H545   1.082       .  S
N546        N547   1.323       .  A
N546        C550   1.346       .  A
N547        C548   1.347       .  A
C548        C549   1.386       .  A
C548        H551   1.082       .  S
C549        C550   1.383       .  A
C549       C2712   1.476       .  S
C550        H552   1.082       .  S
N553        N554   1.322       .  A
N553        C557   1.348       .  A
N553       Cu561   2.082       .  S
N554        C555   1.341       .  A
N554       Cu560   2.062       .  S
C555        C556   1.378       .  A
C555        H558   1.082       .  S
C556        C557   1.385       .  A
C556       C2875   1.467       .  S
C557        H559   1.082       .  S
Cu560       N563   2.062       .  S
Cu561       N571   2.083       .  S
Cu562       N564   2.074       .  S
Cu562       N570   2.076       .  S
N563        N564   1.321       .  A
N563        C567   1.342       .  A
N564        C565   1.348       .  A
C565        C566   1.384       .  A
C565        H568   1.082       .  S
C566        C567   1.379       .  A
C566       C2760   1.465       .  S
C567        H569   1.082       .  S
N570        N571   1.324       .  A
N570        C574   1.343       .  A
N571        C572   1.348       .  A
C572        C573   1.385       .  A
C572        H575   1.082       .  S
C573        C574   1.380       .  A
C573       C2699   1.471       .  S
C574        H576   1.082       .  S
N577        N578   1.323       .  A
N577        C581   1.346       .  A
N577       Cu585   2.080       .  S
N578        C579   1.343       .  A
N578       Cu584   2.068       .  S
C579        C580   1.379       .  A
C579        H582   1.082       .  S
C580        C581   1.384       .  A
C580       C2664   1.468       .  S
C581        H583   1.082       .  S
Cu584       N587   2.067       .  S
Cu585       N595   2.080       .  S
Cu586       N588   2.075       .  S
Cu586       N594   2.075       .  S
N587        N588   1.321       .  A
N587        C591   1.345       .  A
N588        C589   1.344       .  A
C589        C590   1.384       .  A
C589        H592   1.082       .  S
C590        C591   1.381       .  A
C590       C2680   1.469       .  S
C591        H593   1.082       .  S
N594        N595   1.323       .  A
N594        C598   1.344       .  A
N595        C596   1.348       .  A
C596        C597   1.384       .  A
C596        H599   1.082       .  S
C597        C598   1.384       .  A
C597       C2648   1.475       .  S
C598        H600   1.082       .  S
N601        N602   1.323       .  A
N601        C605   1.347       .  A
N601       Cu609   2.075       .  S
N602        C603   1.343       .  A
N602       Cu608   2.069       .  S
C603        C604   1.379       .  A
C603        H606   1.082       .  S
C604        C605   1.383       .  A
C604       C2683   1.466       .  S
C605        H607   1.082       .  S
Cu608       N611   2.070       .  S
Cu609       N619   2.075       .  S
Cu610       N612   2.077       .  S
Cu610       N618   2.078       .  S
N611        N612   1.322       .  A
N611        C615   1.346       .  A
N612        C613   1.346       .  A
C613        C614   1.385       .  A
C613        H616   1.082       .  S
C614        C615   1.382       .  A
C614       C2635   1.471       .  S
C615        H617   1.082       .  S
N618        N619   1.323       .  A
N618        C622   1.344       .  A
N619        C620   1.347       .  A
C620        C621   1.383       .  A
C620        H623   1.082       .  S
C621        C622   1.384       .  A
C621       C2619   1.473       .  S
C622        H624   1.082       .  S
N625        N626   1.323       .  A
N625        C629   1.349       .  A
N625       Cu633   2.093       .  S
N626        C627   1.344       .  A
N626       Cu632   2.068       .  S
C627        C628   1.381       .  A
C627        H630   1.082       .  S
C628        C629   1.386       .  A
C628       C2603   1.474       .  S
C629        H631   1.082       .  S
Cu632       N635   2.068       .  S
Cu633       N643   2.093       .  S
Cu634       N636   2.075       .  S
Cu634       N642   2.076       .  S
N635        N636   1.321       .  A
N635        C639   1.344       .  A
N636        C637   1.346       .  A
C637        C638   1.385       .  A
C637        H640   1.082       .  S
C638        C639   1.381       .  A
C638       C2667   1.470       .  S
C639        H641   1.082       .  S
N642        N643   1.324       .  A
N642        C646   1.344       .  A
N643        C644   1.350       .  A
C644        C645   1.388       .  A
C644        H647   1.082       .  S
C645        C646   1.381       .  A
C645       C2587   1.477       .  S
C646        H648   1.082       .  S
N649        N650   1.323       .  A
N649        C653   1.348       .  A
N649       Cu657   2.080       .  S
N650        C651   1.343       .  A
N650       Cu656   2.070       .  S
C651        C652   1.380       .  A
C651        H654   1.082       .  S
C652        C653   1.385       .  A
C652       C2632   1.470       .  S
C653        H655   1.082       .  S
Cu656       N659   2.070       .  S
Cu657       N667   2.080       .  S
Cu658       N660   2.069       .  S
Cu658       N666   2.070       .  S
N659        N660   1.322       .  A
N659        C663   1.345       .  A
N660        C661   1.344       .  A
C661        C662   1.383       .  A
C661        H664   1.082       .  S
C662        C663   1.381       .  A
C662       C2571   1.468       .  S
C663        H665   1.082       .  S
N666        N667   1.323       .  A
N666        C670   1.344       .  A
N667        C668   1.346       .  A
C668        C669   1.383       .  A
C668        H671   1.082       .  S
C669        C670   1.382       .  A
C669       C2552   1.470       .  S
C670        H672   1.082       .  S
N673        N674   1.322       .  A
N673        C677   1.346       .  A
N673       Cu681   2.073       .  S
N674        C675   1.343       .  A
N674       Cu680   2.066       .  S
C675        C676   1.379       .  A
C675        H678   1.082       .  S
C676        C677   1.384       .  A
C676       C2568   1.467       .  S
C677        H679   1.082       .  S
Cu680       N683   2.066       .  S
Cu681       N691   2.074       .  S
Cu682       N684   2.076       .  S
Cu682       N690   2.076       .  S
N683        N684   1.322       .  A
N683        C687   1.344       .  A
N684        C685   1.346       .  A
C685        C686   1.384       .  A
C685        H688   1.082       .  S
C686        C687   1.380       .  A
C686       C2536   1.468       .  S
C687        H689   1.082       .  S
N690        N691   1.323       .  A
N690        C694   1.344       .  A
N691        C692   1.346       .  A
C692        C693   1.383       .  A
C692        H695   1.082       .  S
C693        C694   1.382       .  A
C693       C2520   1.470       .  S
C694        H696   1.082       .  S
N697        N698   1.322       .  A
N697        C701   1.348       .  A
N697       Cu705   2.077       .  S
N698        C699   1.342       .  A
N698       Cu704   2.066       .  S
C699        C700   1.379       .  A
C699        H702   1.082       .  S
C700        C701   1.385       .  A
C700       C2539   1.468       .  S
C701        H703   1.082       .  S
Cu704       N707   2.066       .  S
Cu705       N715   2.078       .  S
Cu706       N708   2.079       .  S
Cu706       N714   2.080       .  S
N707        N708   1.321       .  A
N707        C711   1.344       .  A
N708        C709   1.347       .  A
C709        C710   1.385       .  A
C709        H712   1.082       .  S
C710        C711   1.383       .  A
C710       C2600   1.473       .  S
C711        H713   1.082       .  S
N714        N715   1.324       .  A
N714        C718   1.344       .  A
N715        C716   1.347       .  A
C716        C717   1.383       .  A
C716        H719   1.082       .  S
C717        C718   1.384       .  A
C717       C2504   1.472       .  S
C718        H720   1.081       .  S
N721        N722   1.324       .  A
N721        C725   1.347       .  A
N721       Cu729   2.083       .  S
N722        C723   1.344       .  A
N722       Cu728   2.072       .  S
C723        C724   1.380       .  A
C723        H726   1.082       .  S
C724        C725   1.382       .  A
C724       C2475   1.467       .  S
C725        H727   1.082       .  S
Cu728       N731   2.072       .  S
Cu729       N739   2.082       .  S
Cu730       N732   2.074       .  S
Cu730       N738   2.075       .  S
N731        N732   1.321       .  A
N731        C735   1.346       .  A
N732        C733   1.345       .  A
C733        C734   1.384       .  A
C733        H736   1.082       .  S
C734        C735   1.383       .  A
C734       C2491   1.472       .  S
C735        H737   1.082       .  S
N738        N739   1.323       .  A
N738        C742   1.343       .  A
N739        C740   1.349       .  A
C740        C741   1.386       .  A
C740        H743   1.082       .  S
C741        C742   1.381       .  A
C741       C2456   1.473       .  S
C742        H744   1.082       .  S
N745        N746   1.323       .  A
N745        C749   1.347       .  A
N745       Cu753   2.080       .  S
N746        C747   1.345       .  A
N746       Cu752   2.075       .  S
C747        C748   1.381       .  A
C747        H750   1.082       .  S
C748        C749   1.385       .  A
C748       C2488   1.471       .  S
C749        H751   1.082       .  S
Cu752       N755   2.075       .  S
Cu753       N763   2.080       .  S
Cu754       N756   2.071       .  S
Cu754       N762   2.071       .  S
N755        N756   1.322       .  A
N755        C759   1.347       .  A
N756        C757   1.344       .  A
C757        C758   1.383       .  A
C757        H760   1.082       .  S
C758        C759   1.382       .  A
C758       C2440   1.470       .  S
C759        H761   1.082       .  S
N762        N763   1.322       .  A
N762        C766   1.344       .  A
N763        C764   1.346       .  A
C764        C765   1.383       .  A
C764        H767   1.082       .  S
C765        C766   1.383       .  A
C765       C2427   1.472       .  S
C766        H768   1.082       .  S
N769        N770   1.324       .  A
N769        C773   1.348       .  A
N769       Cu777   2.090       .  S
N770        C771   1.344       .  A
N770       Cu776   2.068       .  S
C771        C772   1.380       .  A
C771        H774   1.082       .  S
C772        C773   1.385       .  A
C772       C2411   1.471       .  S
C773        H775   1.082       .  S
Cu776       N779   2.067       .  S
Cu777       N787   2.090       .  S
Cu778       N780   2.060       .  S
Cu778       N786   2.061       .  S
N779        N780   1.320       .  A
N779        C783   1.343       .  A
N780        C781   1.344       .  A
C781        C782   1.381       .  A
C781        H784   1.082       .  S
C782        C783   1.383       .  A
C782       C2472   1.466       .  S
C783        H785   1.082       .  S
N786        N787   1.322       .  A
N786        C790   1.341       .  A
N787        C788   1.350       .  A
C788        C789   1.387       .  A
C788        H791   1.082       .  S
C789        C790   1.380       .  A
C789       C2392   1.473       .  S
C790        H792   1.082       .  S
N793        N794   1.321       .  A
N793        C797   1.350       .  A
N793       Cu801   2.080       .  S
N794        C795   1.339       .  A
N794       Cu800   2.057       .  S
C795        C796   1.377       .  A
C795        H798   1.082       .  S
C796        C797   1.387       .  A
C796       C2443   1.468       .  S
C797        H799   1.082       .  S
Cu800       N803   2.058       .  S
Cu801       N811   2.081       .  S
Cu802       N804   2.076       .  S
Cu802       N810   2.078       .  S
N803        N804   1.320       .  A
N803        C807   1.341       .  A
N804        C805   1.348       .  A
C805        C806   1.386       .  A
C805        H808   1.082       .  S
C806        C807   1.379       .  A
C806       C2376   1.468       .  S
C807        H809   1.082       .  S
N810        N811   1.325       .  A
N810        C814   1.344       .  A
N811        C812   1.346       .  A
C812        C813   1.383       .  A
C812        H815   1.082       .  S
C813        C814   1.381       .  A
C813       C2363   1.469       .  S
C814        H816   1.082       .  S
N817        N818   1.321       .  A
N817        C821   1.347       .  A
N817       Cu825   2.074       .  S
N818        C819   1.343       .  A
N818       Cu824   2.067       .  S
C819        C820   1.382       .  A
C819        H822   1.082       .  S
C820        C821   1.383       .  A
C820       C2379   1.468       .  S
C821        H823   1.082       .  S
Cu824       N827   2.068       .  S
Cu825       N835   2.075       .  S
Cu826       N828   2.080       .  S
Cu826       N834   2.080       .  S
N827        N828   1.323       .  A
N827        C831   1.343       .  A
N828        C829   1.348       .  A
C829        C830   1.384       .  A
C829        H832   1.082       .  S
C830        C831   1.382       .  A
C830       C2344   1.471       .  S
C831        H833   1.082       .  S
N834        N835   1.323       .  A
N834        C838   1.347       .  A
N835        C836   1.344       .  A
C836        C837   1.383       .  A
C836        H839   1.082       .  S
C837        C838   1.384       .  A
C837       C2328   1.473       .  S
C838        H840   1.082       .  S
N841        N842   1.323       .  A
N841        C845   1.352       .  A
N841       Cu849   2.100       .  S
N842        C843   1.340       .  A
N842       Cu848   2.059       .  S
C843        C844   1.376       .  A
C843        H846   1.082       .  S
C844        C845   1.389       .  A
C844       C2347   1.471       .  S
C845        H847   1.082       .  S
Cu848       N851   2.059       .  S
Cu849       N859   2.101       .  S
Cu850       N852   2.080       .  S
Cu850       N858   2.082       .  S
N851        N852   1.320       .  A
N851        C855   1.343       .  A
N852        C853   1.348       .  A
C853        C854   1.386       .  A
C853        H856   1.082       .  S
C854        C855   1.382       .  A
C854       C2408   1.472       .  S
C855        H857   1.082       .  S
N858        N859   1.326       .  A
N858        C862   1.345       .  A
N859        C860   1.350       .  A
C860        C861   1.388       .  A
C860        H863   1.082       .  S
C861        C862   1.380       .  A
C861       C2315   1.477       .  S
C862        H864   1.082       .  S
N865        N866   1.324       .  A
N865        C869   1.348       .  A
N865       Cu873   2.082       .  S
N866        C867   1.342       .  A
N866       Cu872   2.072       .  S
C867        C868   1.381       .  A
C867        H870   1.082       .  S
C868        C869   1.384       .  A
C868       C2283   1.470       .  S
C869        H871   1.082       .  S
Cu872       N875   2.072       .  S
Cu873       N883   2.081       .  S
Cu874       N876   2.067       .  S
Cu874       N882   2.068       .  S
N875        N876   1.320       .  A
N875        C879   1.347       .  A
N876        C877   1.344       .  A
C877        C878   1.382       .  A
C877        H880   1.082       .  S
C878        C879   1.384       .  A
C878       C2296   1.470       .  S
C879        H881   1.082       .  S
N882        N883   1.322       .  A
N882        C886   1.342       .  A
N883        C884   1.348       .  A
C884        C885   1.385       .  A
C884        H887   1.082       .  S
C885        C886   1.382       .  A
C885       C2267   1.473       .  S
C886        H888   1.081       .  S
N889        N890   1.322       .  A
N889        C893   1.346       .  A
N889       Cu897   2.077       .  S
N890        C891   1.345       .  A
N890       Cu896   2.075       .  S
C891        C892   1.382       .  A
C891        H894   1.082       .  S
C892        C893   1.384       .  A
C892       C2299   1.471       .  S
C893        H895   1.082       .  S
Cu896       N899   2.074       .  S
Cu897       N907   2.077       .  S
Cu898       N900   2.075       .  S
Cu898       N906   2.075       .  S
N899        N900   1.322       .  A
N899        C903   1.344       .  A
N900        C901   1.347       .  A
C901        C902   1.384       .  A
C901        H904   1.082       .  S
C902        C903   1.381       .  A
C902       C2251   1.469       .  S
C903        H905   1.082       .  S
N906        N907   1.323       .  A
N906        C910   1.344       .  A
N907        C908   1.347       .  A
C908        C909   1.383       .  A
C908        H911   1.082       .  S
C909        C910   1.383       .  A
C909       C2232   1.472       .  S
C910        H912   1.082       .  S
N913        N914   1.323       .  A
N913        C917   1.347       .  A
N913       Cu921   2.083       .  S
N914        C915   1.345       .  A
N914       Cu920   2.075       .  S
C915        C916   1.383       .  A
C915        H918   1.082       .  S
C916        C917   1.384       .  A
C916       C2216   1.472       .  S
C917        H919   1.082       .  S
Cu920       N923   2.075       .  S
Cu921       N931   2.082       .  S
Cu922       N924   2.069       .  S
Cu922       N930   2.069       .  S
N923        N924   1.322       .  A
N923        C927   1.345       .  A
N924        C925   1.345       .  A
C925        C926   1.381       .  A
C925        H928   1.082       .  S
C926        C927   1.383       .  A
C926       C2280   1.467       .  S
C927        H929   1.082       .  S
N930        N931   1.322       .  A
N930        C934   1.345       .  A
N931        C932   1.346       .  A
C932        C933   1.384       .  A
C932        H935   1.082       .  S
C933        C934   1.383       .  A
C933       C2200   1.473       .  S
C934        H936   1.082       .  S
N937        N938   1.323       .  A
N937        C941   1.348       .  A
N937       Cu945   2.083       .  S
N938        C939   1.342       .  A
N938       Cu944   2.066       .  S
C939        C940   1.379       .  A
C939        H942   1.082       .  S
C940        C941   1.385       .  A
C940       C2248   1.469       .  S
C941        H943   1.082       .  S
Cu944       N947   2.066       .  S
Cu945       N955   2.083       .  S
Cu946       N948   2.072       .  S
Cu946       N954   2.073       .  S
N947        N948   1.321       .  A
N947        C951   1.344       .  A
N948        C949   1.345       .  A
C949        C950   1.382       .  A
C949        H952   1.082       .  S
C950        C951   1.382       .  A
C950       C2184   1.468       .  S
C951        H953   1.082       .  S
N954        N955   1.323       .  A
N954        C958   1.343       .  A
N955        C956   1.348       .  A
C956        C957   1.385       .  A
C956        H959   1.082       .  S
C957        C958   1.380       .  A
C957       C2168   1.471       .  S
C958        H960   1.082       .  S
N961        N962   1.323       .  A
N961        C965   1.346       .  A
N961       Cu969   2.076       .  S
N962        C963   1.344       .  A
N962       Cu968   2.071       .  S
C963        C964   1.381       .  A
C963        H966   1.082       .  S
C964        C965   1.382       .  A
C964       C2187   1.467       .  S
C965        H967   1.082       .  S
Cu968       N971   2.071       .  S
Cu969       N979   2.076       .  S
Cu970       N972   2.077       .  S
Cu970       N978   2.078       .  S
N971        N972   1.322       .  A
N971        C975   1.344       .  A
N972        C973   1.347       .  A
C973        C974   1.384       .  A
C973        H976   1.082       .  S
C974        C975   1.381       .  A
C974       C2155   1.469       .  S
C975        H977   1.082       .  S
N978        N979   1.323       .  A
N978        C982   1.344       .  A
N979        C980   1.347       .  A
C980        C981   1.384       .  A
C980        H983   1.082       .  S
C981        C982   1.382       .  A
C981       C2139   1.472       .  S
C982        H984   1.082       .  S
N985        N986   1.323       .  A
N985        C989   1.347       .  A
N985       Cu993   2.080       .  S
N986        C987   1.344       .  A
N986       Cu992   2.070       .  S
C987        C988   1.380       .  A
C987        H990   1.082       .  S
C988        C989   1.385       .  A
C988       C2152   1.470       .  S
C989        H991   1.082       .  S
Cu992       N995   2.070       .  S
Cu993      N1003   2.081       .  S
Cu994       N996   2.077       .  S
Cu994      N1002   2.078       .  S
N995        N996   1.322       .  A
N995        C999   1.344       .  A
N996        C997   1.347       .  A
C997        C998   1.384       .  A
C997       H1000   1.082       .  S
C998        C999   1.382       .  A
C998       C2219   1.471       .  S
C999       H1001   1.082       .  S
N1002      N1003   1.323       .  A
N1002      C1006   1.345       .  A
N1003      C1004   1.347       .  A
C1004      C1005   1.383       .  A
C1004      H1007   1.082       .  S
C1005      C1006   1.383       .  A
C1005      C2120   1.473       .  S
C1006      H1008   1.082       .  S
N1009      N1010   1.323       .  A
N1009      C1013   1.348       .  A
N1009     Cu1017   2.085       .  S
N1010      C1011   1.344       .  A
N1010     Cu1016   2.074       .  S
C1011      C1012   1.382       .  A
C1011      H1014   1.082       .  S
C1012      C1013   1.384       .  A
C1012      C2088   1.472       .  S
C1013      H1015   1.082       .  S
Cu1016     N1019   2.073       .  S
Cu1017     N1027   2.085       .  S
Cu1018     N1020   2.086       .  S
Cu1018     N1026   2.086       .  S
N1019      N1020   1.322       .  A
N1019      C1023   1.346       .  A
N1020      C1021   1.347       .  A
C1021      C1022   1.384       .  A
C1021      H1024   1.082       .  S
C1022      C1023   1.383       .  A
C1022      C2104   1.472       .  S
C1023      H1025   1.082       .  S
N1026      N1027   1.323       .  A
N1026      C1030   1.345       .  A
N1027      C1028   1.349       .  A
C1028      C1029   1.385       .  A
C1028      H1031   1.082       .  S
C1029      C1030   1.386       .  A
C1029      C2072   1.479       .  S
C1030      H1032   1.082       .  S
N1033      N1034   1.323       .  A
N1033      C1037   1.347       .  A
N1033     Cu1041   2.078       .  S
N1034      C1035   1.345       .  A
N1034     Cu1040   2.076       .  S
C1035      C1036   1.381       .  A
C1035      H1038   1.082       .  S
C1036      C1037   1.385       .  A
C1036      C2059   1.471       .  S
C1037      H1039   1.082       .  S
Cu1040     N1043   2.076       .  S
Cu1041     N1051   2.077       .  S
Cu1042     N1044   2.080       .  S
Cu1042     N1050   2.080       .  S
N1043      N1044   1.322       .  A
N1043      C1047   1.346       .  A
N1044      C1045   1.346       .  A
C1045      C1046   1.383       .  A
C1045      H1048   1.082       .  S
C1046      C1047   1.383       .  A
C1046      C2091   1.472       .  S
C1047      H1049   1.082       .  S
N1050      N1051   1.323       .  A
N1050      C1054   1.346       .  A
N1051      C1052   1.346       .  A
C1052      C1053   1.382       .  A
C1052      H1055   1.082       .  S
C1053      C1054   1.384       .  A
C1053      C2043   1.472       .  S
C1054      H1056   1.082       .  S
N1057      N1058   1.324       .  A
N1057      C1061   1.351       .  A
N1057     Cu1065   2.094       .  S
N1058      C1059   1.342       .  A
N1058     Cu1064   2.067       .  S
C1059      C1060   1.379       .  A
C1059      H1062   1.082       .  S
C1060      C1061   1.387       .  A
C1060      C2024   1.472       .  S
C1061      H1063   1.082       .  S
Cu1064     N1067   2.066       .  S
Cu1065     N1075   2.094       .  S
Cu1066     N1068   2.077       .  S
Cu1066     N1074   2.078       .  S
N1067      N1068   1.320       .  A
N1067      C1071   1.345       .  A
N1068      C1069   1.347       .  A
C1069      C1070   1.385       .  A
C1069      H1072   1.082       .  S
C1070      C1071   1.382       .  A
C1070      C2056   1.471       .  S
C1071      H1073   1.082       .  S
N1074      N1075   1.325       .  A
N1074      C1078   1.343       .  A
N1075      C1076   1.350       .  A
C1076      C1077   1.387       .  A
C1076      H1079   1.082       .  S
C1077      C1078   1.380       .  A
C1077      C2008   1.474       .  S
C1078      H1080   1.082       .  S
N1081      N1082   1.322       .  A
N1081      C1085   1.350       .  A
N1081     Cu1089   2.084       .  S
N1082      C1083   1.341       .  A
N1082     Cu1088   2.062       .  S
C1083      C1084   1.380       .  A
C1083      H1086   1.082       .  S
C1084      C1085   1.385       .  A
C1084      C1995   1.470       .  S
C1085      H1087   1.082       .  S
Cu1088     N1091   2.062       .  S
Cu1089     N1099   2.086       .  S
Cu1090     N1092   2.080       .  S
Cu1090     N1098   2.081       .  S
N1091      N1092   1.321       .  A
N1091      C1095   1.344       .  A
N1092      C1093   1.347       .  A
C1093      C1094   1.386       .  A
C1093      H1096   1.082       .  S
C1094      C1095   1.380       .  A
C1094      C2027   1.470       .  S
C1095      H1097   1.082       .  S
N1098      N1099   1.324       .  A
N1098      C1102   1.345       .  A
N1099      C1100   1.347       .  A
C1100      C1101   1.384       .  A
C1100      H1103   1.082       .  S
C1101      C1102   1.383       .  A
C1101      C1979   1.474       .  S
C1102      H1104   1.082       .  S
N1105      N1106   1.321       .  A
N1105      C1109   1.349       .  A
N1105     Cu1113   2.075       .  S
N1106      C1107   1.341       .  A
N1106     Cu1112   2.063       .  S
C1107      C1108   1.381       .  A
C1107      H1110   1.082       .  S
C1108      C1109   1.385       .  A
C1108      C2107   1.470       .  S
C1109      H1111   1.082       .  S
Cu1112     N1115   2.063       .  S
Cu1113     N1123   2.076       .  S
Cu1114     N1116   2.080       .  S
Cu1114     N1122   2.081       .  S
N1115      N1116   1.321       .  A
N1115      C1119   1.342       .  A
N1116      C1117   1.348       .  A
C1117      C1118   1.385       .  A
C1117      H1120   1.082       .  S
C1118      C1119   1.381       .  A
C1118      C1960   1.470       .  S
C1119      H1121   1.082       .  S
N1122      N1123   1.325       .  A
N1122      C1126   1.344       .  A
N1123      C1124   1.345       .  A
C1124      C1125   1.380       .  A
C1124      H1127   1.082       .  S
C1125      C1126   1.383       .  A
C1125      C1944   1.469       .  S
C1126      H1128   1.082       .  S
N1129      N1130   1.322       .  A
N1129      C1133   1.349       .  A
N1129     Cu1137   2.089       .  S
N1130      C1131   1.343       .  A
N1130     Cu1136   2.066       .  S
C1131      C1132   1.379       .  A
C1131      H1134   1.082       .  S
C1132      C1133   1.386       .  A
C1132      C1963   1.470       .  S
C1133      H1135   1.082       .  S
Cu1136     N1139   2.065       .  S
Cu1137     N1147   2.091       .  S
Cu1138     N1140   2.075       .  S
Cu1138     N1146   2.076       .  S
N1139      N1140   1.321       .  A
N1139      C1143   1.341       .  A
N1140      C1141   1.349       .  A
C1141      C1142   1.386       .  A
C1141      H1144   1.082       .  S
C1142      C1143   1.380       .  A
C1142      C1992   1.469       .  S
C1143      H1145   1.082       .  S
N1146      N1147   1.325       .  A
N1146      C1150   1.344       .  A
N1147      C1148   1.349       .  A
C1148      C1149   1.385       .  A
C1148      H1151   1.082       .  S
C1149      C1150   1.382       .  A
C1149      C1931   1.475       .  S
C1150      H1152   1.082       .  S
N1153      N1154   1.321       .  A
N1153      C1157   1.348       .  A
N1153     Cu1161   2.087       .  S
N1154      C1155   1.343       .  A
N1154     Cu1160   2.055       .  S
C1155      C1156   1.379       .  A
C1155      H1158   1.082       .  S
C1156      C1157   1.388       .  A
C1156      C2203   1.472       .  S
C1157      H1159   1.082       .  S
Cu1160     N1163   2.056       .  S
Cu1161     N1171   2.089       .  S
Cu1162     N1164   2.098       .  S
Cu1162     N1170   2.099       .  S
N1163      N1164   1.322       .  A
N1163      C1167   1.340       .  A
N1164      C1165   1.351       .  A
C1165      C1166   1.389       .  A
C1165      H1168   1.082       .  S
C1166      C1167   1.380       .  A
C1166      C2011   1.475       .  S
C1167      H1169   1.082       .  S
N1170      N1171   1.325       .  A
N1170      C1174   1.350       .  A
N1171      C1172   1.347       .  A
C1172      C1173   1.383       .  A
C1172      H1175   1.082       .  S
C1173      C1174   1.388       .  A
C1173      C1915   1.481       .  S
C1174      H1176   1.082       .  S
N1177      N1178   1.322       .  A
N1177      C1181   1.349       .  A
N1177     Cu1185   2.084       .  S
N1178      C1179   1.344       .  A
N1178     Cu1184   2.072       .  S
C1179      C1180   1.382       .  A
C1179      H1182   1.082       .  S
C1180      C1181   1.387       .  A
C1180      C2075   1.475       .  S
C1181      H1183   1.082       .  S
Cu1184     N1187   2.072       .  S
Cu1185     N1195   2.084       .  S
Cu1186     N1188   2.077       .  S
Cu1186     N1194   2.078       .  S
N1187      N1188   1.322       .  A
N1187      C1191   1.343       .  A
N1188      C1189   1.347       .  A
C1189      C1190   1.385       .  A
C1189      H1192   1.082       .  S
C1190      C1191   1.381       .  A
C1190      C2395   1.471       .  S
C1191      H1193   1.082       .  S
N1194      N1195   1.324       .  A
N1194      C1198   1.345       .  A
N1195      C1196   1.347       .  A
C1196      C1197   1.383       .  A
C1196      H1199   1.082       .  S
C1197      C1198   1.384       .  A
C1197      C1899   1.473       .  S
C1198      H1200   1.082       .  S
N1201      N1202   1.322       .  A
N1201      C1205   1.349       .  A
N1201     Cu1209   2.088       .  S
N1202      C1203   1.345       .  A
N1202     Cu1208   2.077       .  S
C1203      C1204   1.384       .  A
C1203      H1206   1.082       .  S
C1204      C1205   1.386       .  A
C1204      C2584   1.478       .  S
C1205      H1207   1.082       .  S
Cu1208     N1211   2.077       .  S
Cu1209     N1219   2.088       .  S
Cu1210     N1212   2.082       .  S
Cu1210     N1218   2.083       .  S
N1211      N1212   1.322       .  A
N1211      C1215   1.345       .  A
N1212      C1213   1.348       .  A
C1213      C1214   1.386       .  A
C1213      H1216   1.082       .  S
C1214      C1215   1.382       .  A
C1214      C1928   1.475       .  S
C1215      H1217   1.082       .  S
N1218      N1219   1.324       .  A
N1218      C1222   1.347       .  A
N1219      C1220   1.346       .  A
C1220      C1221   1.385       .  A
C1220      H1223   1.082       .  S
C1221      C1222   1.383       .  A
C1221      C1883   1.476       .  S
C1222      H1224   1.082       .  S
N1225      N1226   1.321       .  A
N1225      C1229   1.349       .  A
N1225     Cu1233   2.086       .  S
N1226      C1227   1.343       .  A
N1226     Cu1232   2.068       .  S
C1227      C1228   1.383       .  A
C1227      H1230   1.082       .  S
C1228      C1229   1.386       .  A
C1228      C3192   1.476       .  S
C1229      H1231   1.082       .  S
Cu1232     N1235   2.068       .  S
Cu1233     N1243   2.087       .  S
Cu1234     N1236   2.081       .  S
Cu1234     N1242   2.082       .  S
N1235      N1236   1.322       .  A
N1235      C1239   1.342       .  A
N1236      C1237   1.349       .  A
C1237      C1238   1.386       .  A
C1237      H1240   1.082       .  S
C1238      C1239   1.383       .  A
C1238      C2136   1.474       .  S
C1239      H1241   1.081       .  S
N1242      N1243   1.325       .  A
N1242      C1246   1.346       .  A
N1243      C1244   1.346       .  A
C1244      C1245   1.384       .  A
C1244      H1247   1.082       .  S
C1245      C1246   1.382       .  A
C1245      C1864   1.474       .  S
C1246      H1248   1.082       .  S
N1249      N1250   1.321       .  A
N1249      C1253   1.349       .  A
N1249     Cu1257   2.085       .  S
N1250      C1251   1.343       .  A
N1250     Cu1256   2.066       .  S
C1251      C1252   1.383       .  A
C1251      H1254   1.082       .  S
C1252      C1253   1.387       .  A
C1252      C2811   1.475       .  S
C1253      H1255   1.082       .  S
Cu1256     N1259   2.065       .  S
Cu1257     N1267   2.087       .  S
Cu1258     N1260   2.088       .  S
Cu1258     N1266   2.089       .  S
N1259      N1260   1.322       .  A
N1259      C1263   1.342       .  A
N1260      C1261   1.350       .  A
C1261      C1262   1.387       .  A
C1261      H1264   1.082       .  S
C1262      C1263   1.382       .  A
C1262      C2331   1.475       .  S
C1263      H1265   1.082       .  S
N1266      N1267   1.325       .  A
N1266      C1270   1.347       .  A
N1267      C1268   1.347       .  A
C1268      C1269   1.384       .  A
C1268      H1271   1.082       .  S
C1269      C1270   1.383       .  A
C1269      C1848   1.476       .  S
C1270      H1272   1.082       .  S
N1273      N1274   1.322       .  A
N1273      C1277   1.348       .  A
N1273     Cu1281   2.078       .  S
N1274      C1275   1.343       .  A
N1274     Cu1280   2.074       .  S
C1275      C1276   1.384       .  A
C1275      H1278   1.082       .  S
C1276      C1277   1.384       .  A
C1276      C2523   1.473       .  S
C1277      H1279   1.082       .  S
Cu1280     N1283   2.075       .  S
Cu1281     N1291   2.079       .  S
Cu1282     N1284   2.090       .  S
Cu1282     N1290   2.091       .  S
N1283      N1284   1.323       .  A
N1283      C1287   1.345       .  A
N1284      C1285   1.349       .  A
C1285      C1286   1.387       .  A
C1285      H1288   1.082       .  S
C1286      C1287   1.382       .  A
C1286      C3003   1.476       .  S
C1287      H1289   1.082       .  S
N1290      N1291   1.324       .  A
N1290      C1294   1.348       .  A
N1291      C1292   1.346       .  A
C1292      C1293   1.384       .  A
C1292      H1295   1.082       .  S
C1293      C1294   1.385       .  A
C1293      C1835   1.478       .  S
C1294      H1296   1.082       .  S
N1297      N1298   1.323       .  A
N1297      C1301   1.350       .  A
N1297     Cu1305   2.088       .  S
N1298      C1299   1.344       .  A
N1298     Cu1304   2.080       .  S
C1299      C1300   1.382       .  A
C1299      H1302   1.082       .  S
C1300      C1301   1.388       .  A
C1300      C3035   1.477       .  S
C1301      H1303   1.082       .  S
Cu1304     N1307   2.081       .  S
Cu1305     N1315   2.088       .  S
Cu1306     N1308   2.086       .  S
Cu1306     N1314   2.086       .  S
N1307      N1308   1.322       .  A
N1307      C1311   1.345       .  A
N1308      C1309   1.350   1_455  A
C1309      C1310   1.387       .  A
C1309      H1312   1.082       .  S
C1310      C1311   1.386   1_655  A
C1310      C3339   1.481       .  S
C1311      H1313   1.082       .  S
N1314      N1315   1.325       .  A
N1314      C1318   1.347       .  A
N1315      C1316   1.347       .  A
C1316      C1317   1.383       .  A
C1316      H1319   1.082       .  S
C1317      C1318   1.384       .  A
C1317      C1816   1.475       .  S
C1318      H1320   1.082       .  S
N1321      N1322   1.322       .  A
N1321      C1325   1.349   1_455  A
N1321     Cu1329   2.087       .  S
N1322      C1323   1.344       .  A
N1322     Cu1328   2.071       .  S
C1323      C1324   1.383   1_455  A
C1323      H1326   1.082       .  S
C1324      C1325   1.387       .  A
C1324      C3163   1.477       .  S
C1325      H1327   1.082       .  S
Cu1328     N1331   2.070       .  S
Cu1329     N1339   2.086       .  S
Cu1330     N1332   2.070       .  S
Cu1330     N1338   2.071       .  S
N1331      N1332   1.321       .  A
N1331      C1335   1.342       .  A
N1332      C1333   1.347       .  A
C1333      C1334   1.384       .  A
C1333      H1336   1.082       .  S
C1334      C1335   1.381       .  A
C1334      C2507   1.469       .  S
C1335      H1337   1.082       .  S
N1338      N1339   1.324       .  A
N1338      C1342   1.344       .  A
N1339      C1340   1.346       .  A
C1340      C1341   1.383       .  A
C1340      H1343   1.082       .  S
C1341      C1342   1.381       .  A
C1341      C1803   1.470       .  S
C1342      H1344   1.082       .  S
N1345      N1346   1.320       .  A
N1345      C1349   1.351       .  A
N1345     Cu1353   2.085       .  S
N1346      C1347   1.340       .  A
N1346     Cu1352   2.056       .  S
C1347      C1348   1.381       .  A
C1347      H1350   1.081       .  S
C1348      C1349   1.388       .  A
C1348      C2779   1.474       .  S
C1349      H1351   1.082       .  S
Cu1352     N1355   2.056   1_565  S
Cu1353     N1363   2.086       .  S
Cu1354     N1356   2.083       .  S
Cu1354     N1362   2.085       .  S
N1355      N1356   1.321       .  A
N1355      C1359   1.341       .  A
N1356      C1357   1.349       .  A
C1357      C1358   1.388       .  A
C1357      H1360   1.082       .  S
C1358      C1359   1.378       .  A
C1358      C2123   1.470       .  S
C1359      H1361   1.082       .  S
N1362      N1363   1.326   1_545  A
N1362      C1366   1.347       .  A
N1363      C1364   1.345       .  A
C1364      C1365   1.381       .  A
C1364      H1367   1.082       .  S
C1365      C1366   1.383   1_565  A
C1365      C1787   1.472   1_655  S
C1366      H1368   1.082       .  S
N1369      N1370   1.321       .  A
N1369      C1373   1.349       .  A
N1369     Cu1377   2.088       .  S
N1370      C1371   1.343       .  A
N1370     Cu1376   2.067   1_565  S
C1371      C1372   1.383       .  A
C1371      H1374   1.082       .  S
C1372      C1373   1.387       .  A
C1372      C3291   1.476       .  S
C1373      H1375   1.082       .  S
Cu1376     N1379   2.068       .  S
Cu1377     N1387   2.089       .  S
Cu1378     N1380   2.081       .  S
Cu1378     N1386   2.082       .  S
N1379      N1380   1.322       .  A
N1379      C1383   1.342       .  A
N1380      C1381   1.349       .  A
C1381      C1382   1.386       .  A
C1381      H1384   1.082       .  S
C1382      C1383   1.380       .  A
C1382      C3224   1.472       .  S
C1383      H1385   1.082       .  S
N1386      N1387   1.325   1_545  A
N1386      C1390   1.347       .  A
N1387      C1388   1.346       .  A
C1388      C1389   1.385       .  A
C1388      H1391   1.082       .  S
C1389      C1390   1.383   1_565  A
C1389      C1768   1.476   1_655  S
C1390      H1392   1.082       .  S
N1393      N1394   1.322       .  A
N1393      C1397   1.351       .  A
N1393     Cu1401   2.085       .  S
N1394      C1395   1.345       .  A
N1394     Cu1400   2.088   1_556  S
C1395      C1396   1.386       .  A
C1395      H1398   1.081       .  S
C1396      C1397   1.387       .  A
C1396      C2971   1.482       .  S
C1397      H1399   1.082       .  S
Cu1400     N1403   2.088       .  S
Cu1401     N1411   2.085       .  S
Cu1402     N1404   2.078       .  S
Cu1402     N1410   2.078       .  S
N1403      N1404   1.322       .  A
N1403      C1407   1.347       .  A
N1404      C1405   1.347       .  A
C1405      C1406   1.384       .  A
C1405      H1408   1.082       .  S
C1406      C1407   1.387       .  A
C1406      C2312   1.479       .  S
C1407      H1409   1.082       .  S
N1410      N1411   1.324   1_554  A
N1410      C1414   1.347       .  A
N1411      C1412   1.345       .  A
C1412      C1413   1.384   1_556  A
C1412      H1415   1.082       .  S
C1413      C1414   1.382       .  A
C1413      C1752   1.473       .  S
C1414      H1416   1.082       .  S
N1417      N1418   1.323       .  A
N1417      C1421   1.348       .  A
N1417     Cu1425   2.087       .  S
N1418      C1419   1.344       .  A
N1418     Cu1424   2.067       .  S
C1419      C1420   1.380       .  A
C1419      H1422   1.082       .  S
C1420      C1421   1.386       .  A
C1420      C2840   1.472       .  S
C1421      H1423   1.082       .  S
Cu1424     N1427   2.068   1_554  S
Cu1425     N1435   2.088       .  S
Cu1426     N1428   2.096       .  S
Cu1426     N1434   2.097       .  S
N1427      N1428   1.323       .  A
N1427      C1431   1.344       .  A
N1428      C1429   1.350       .  A
C1429      C1430   1.388       .  A
C1429      H1432   1.082       .  S
C1430      C1431   1.380       .  A
C1430      C3419   1.475       .  S
C1431      H1433   1.082       .  S
N1434      N1435   1.324   1_556  A
N1434      C1438   1.349       .  A
N1435      C1436   1.349       .  A
C1436      C1437   1.385       .  A
C1436      H1439   1.082       .  S
C1437      C1438   1.388   1_554  A
C1437      C1736   1.484       .  S
C1438      H1440   1.082       .  S
N1441      N1442   1.321       .  A
N1441      C1445   1.347       .  A
N1441     Cu1449   2.067       .  S
N1442      C1443   1.342       .  A
N1442     Cu1448   2.070       .  S
C1443      C1444   1.381       .  A
C1443      H1446   1.082       .  S
C1444      C1445   1.384       .  A
C1444      C1947   1.467       .  S
C1445      H1447   1.082       .  S
Cu1448     N1451   2.070       .  S
Cu1449     N1459   2.068       .  S
Cu1450     N1452   2.072       .  S
Cu1450     N1458   2.073       .  S
N1451      N1452   1.322       .  A
N1451      C1455   1.343       .  A
N1452      C1453   1.346   1_455  A
C1453      C1454   1.383       .  A
C1453      H1456   1.082       .  S
C1454      C1455   1.383   1_655  A
C1454      C2171   1.471       .  S
C1455      H1457   1.082       .  S
N1458      N1459   1.323       .  A
N1458      C1462   1.345       .  A
N1459      C1460   1.343       .  A
C1460      C1461   1.379       .  A
C1460      H1463   1.082       .  S
C1461      C1462   1.383       .  A
C1461      C1800   1.467       .  S
C1462      H1464   1.082       .  S
N1465      N1466   1.322       .  A
N1465      C1469   1.349       .  A
N1465     Cu1473   2.083       .  S
N1466      C1467   1.343       .  A
N1466     Cu1472   2.071       .  S
C1467      C1468   1.383       .  A
C1467      H1470   1.082       .  S
C1468      C1469   1.386       .  A
C1468      C2459   1.475       .  S
C1469      H1471   1.082       .  S
Cu1472     N1475   2.071       .  S
Cu1473     N1483   2.084       .  S
Cu1474     N1476   2.073       .  S
Cu1474     N1482   2.075       .  S
N1475      N1476   1.322       .  A
N1475      C1479   1.343       .  A
N1476      C1477   1.347   1_455  A
C1477      C1478   1.384       .  A
C1477      H1480   1.082       .  S
C1478      C1479   1.382   1_655  A
C1478      C2728   1.470       .  S
C1479      H1481   1.082       .  S
N1482      N1483   1.324       .  A
N1482      C1486   1.346       .  A
N1483      C1484   1.345       .  A
C1484      C1485   1.384       .  A
C1484      H1487   1.082       .  S
C1485      C1486   1.381       .  A
C1485      C1819   1.473       .  S
C1486      H1488   1.082       .  S
N1489      N1490   1.321       .  A
N1489      C1493   1.347       .  A
N1489     Cu1497   2.079       .  S
N1490      C1491   1.344       .  A
N1490     Cu1496   2.066   1_545  S
C1491      C1492   1.381       .  A
C1491      H1494   1.082       .  S
C1492      C1493   1.386       .  A
C1492      C1976   1.473       .  S
C1493      H1495   1.082       .  S
Cu1496     N1499   2.065       .  S
Cu1497     N1507   2.079       .  S
Cu1498     N1500   2.076       .  S
Cu1498     N1506   2.077       .  S
N1499      N1500   1.322       .  A
N1499      C1503   1.340       .  A
N1500      C1501   1.349       .  A
C1501      C1502   1.385       .  A
C1501      H1504   1.082       .  S
C1502      C1503   1.381       .  A
C1502      C2360   1.471       .  S
C1503      H1505   1.081       .  S
N1506      N1507   1.324   1_565  A
N1506      C1510   1.345       .  A
N1507      C1508   1.345       .  A
C1508      C1509   1.381   1_545  A
C1508      H1511   1.082       .  S
C1509      C1510   1.383       .  A
C1509      C1784   1.471       .  S
C1510      H1512   1.082       .  S
N1513      N1514   1.321       .  A
N1513      C1517   1.348       .  A
N1513     Cu1521   2.075       .  S
N1514      C1515   1.344       .  A
N1514     Cu1520   2.075   1_545  S
C1515      C1516   1.383       .  A
C1515      H1518   1.082       .  S
C1516      C1517   1.385       .  A
C1516      C2651   1.473       .  S
C1517      H1519   1.082       .  S
Cu1520     N1523   2.075       .  S
Cu1521     N1531   2.075       .  S
Cu1522     N1524   2.097       .  S
Cu1522     N1530   2.098       .  S
N1523      N1524   1.323       .  A
N1523      C1527   1.344       .  A
N1524      C1525   1.350       .  A
C1525      C1526   1.389       .  A
C1525      H1528   1.082       .  S
C1526      C1527   1.381       .  A
C1526      C2920   1.478       .  S
C1527      H1529   1.082       .  S
N1530      N1531   1.324   1_565  A
N1530      C1534   1.349       .  A
N1531      C1532   1.345       .  A
C1532      C1533   1.382   1_545  A
C1532      H1535   1.082       .  S
C1533      C1534   1.386       .  A
C1533      C1771   1.477       .  S
C1534      H1536   1.082       .  S
N1537      N1538   1.322       .  A
N1537      C1541   1.348       .  A
N1537     Cu1545   2.082       .  S
N1538      C1539   1.341       .  A
N1538     Cu1544   2.060   1_556  S
C1539      C1540   1.378       .  A
C1539      H1542   1.082       .  S
C1540      C1541   1.386       .  A
C1540      C2555   1.469       .  S
C1541      H1543   1.082       .  S
Cu1544     N1547   2.061       .  S
Cu1545     N1555   2.083       .  S
Cu1546     N1548   2.070       .  S
Cu1546     N1554   2.071       .  S
N1547      N1548   1.321       .  A
N1547      C1551   1.342       .  A
N1548      C1549   1.346       .  A
C1549      C1550   1.385       .  A
C1549      H1552   1.082       .  S
C1550      C1551   1.380       .  A
C1550      C2040   1.468       .  S
C1551      H1553   1.082       .  S
N1554      N1555   1.324   1_554  A
N1554      C1558   1.345       .  A
N1555      C1556   1.345       .  A
C1556      C1557   1.383   1_556  A
C1556      H1559   1.082       .  S
C1557      C1558   1.382       .  A
C1557      C1755   1.470       .  S
C1558      H1560   1.082       .  S
N1561      N1562   1.323       .  A
N1561      C1565   1.352       .  A
N1561     Cu1569   2.106       .  S
N1562      C1563   1.342       .  A
N1562     Cu1568   2.065   1_556  S
C1563      C1564   1.382       .  A
C1563      H1566   1.082       .  S
C1564      C1565   1.390       .  A
C1564      C3112   1.480       .  S
C1565      H1567   1.082       .  S
Cu1568     N1571   2.064       .  S
Cu1569     N1579   2.108       .  S
Cu1570     N1572   2.086       .  S
Cu1570     N1578   2.088       .  S
N1571      N1572   1.322       .  A
N1571      C1575   1.342       .  A
N1572      C1573   1.349       .  A
C1573      C1574   1.387       .  A
C1573      H1576   1.082       .  S
C1574      C1575   1.380       .  A
C1574      C2264   1.472       .  S
C1575      H1577   1.082       .  S
N1578      N1579   1.325   1_554  A
N1578      C1582   1.348       .  A
N1579      C1580   1.351       .  A
C1580      C1581   1.388   1_556  A
C1580      H1583   1.082       .  S
C1581      C1582   1.385       .  A
C1581      C1739   1.485       .  S
C1582      H1584   1.082       .  S
N1585      N1586   1.322       .  A
N1585      C1589   1.350       .  A
N1585     Cu1593   2.091       .  S
N1586      C1587   1.343       .  A
N1586     Cu1592   2.067       .  S
C1587      C1588   1.380       .  A
C1587      H1590   1.082       .  S
C1588      C1589   1.389       .  A
C1588      C3387   1.475       .  S
C1589      H1591   1.082       .  S
Cu1592     N1595   2.067       .  S
Cu1593     N1603   2.092       .  S
Cu1594     N1596   2.077       .  S
Cu1594     N1602   2.078       .  S
N1595      N1596   1.321       .  A
N1595      C1599   1.342       .  A
N1596      C1597   1.348       .  A
C1597      C1598   1.386       .  A
C1597      H1600   1.082       .  S
C1598      C1599   1.380       .  A
C1598      C2907   1.471       .  S
C1599      H1601   1.082       .  S
N1602      N1603   1.325       .  A
N1602      C1606   1.345       .  A
N1603      C1604   1.348       .  A
C1604      C1605   1.384       .  A
C1604      H1607   1.082       .  S
C1605      C1606   1.383       .  A
C1605      C1851   1.475       .  S
C1606      H1608   1.082       .  S
N1609      N1610   1.322       .  A
N1609      C1613   1.349       .  A
N1609     Cu1617   2.095       .  S
N1610      C1611   1.344       .  A
N1610     Cu1616   2.066       .  S
C1611      C1612   1.383       .  A
C1611      H1614   1.082       .  S
C1612      C1613   1.387       .  A
C1612      C3083   1.477       .  S
C1613      H1615   1.082       .  S
Cu1616     N1619   2.066       .  S
Cu1617     N1627   2.097       .  S
Cu1618     N1620   2.087       .  S
Cu1618     N1626   2.088       .  S
N1619      N1620   1.322       .  A
N1619      C1623   1.342       .  A
N1620      C1621   1.350       .  A
C1621      C1622   1.387       .  A
C1621      H1624   1.082       .  S
C1622      C1623   1.380       .  A
C1622      C2616   1.472       .  S
C1623      H1625   1.082       .  S
N1626      N1627   1.325       .  A
N1626      C1630   1.346       .  A
N1627      C1628   1.350       .  A
C1628      C1629   1.387       .  A
C1628      H1631   1.082       .  S
C1629      C1630   1.383       .  A
C1629      C1912   1.480       .  S
C1630      H1632   1.082       .  S
N1633      N1634   1.323       .  A
N1633      C1637   1.352       .  A
N1633     Cu1641   2.099       .  S
N1634      C1635   1.343       .  A
N1634     Cu1640   2.069       .  S
C1635      C1636   1.382       .  A
C1635      H1638   1.082       .  S
C1636      C1637   1.389       .  A
C1636      C3099   1.479       .  S
C1637      H1639   1.082       .  S
Cu1640     N1643   2.069       .  S
Cu1641     N1651   2.101       .  S
Cu1642     N1644   2.083       .  S
Cu1642     N1650   2.085       .  S
N1643      N1644   1.321       .  A
N1643      C1647   1.343       .  A
N1644      C1645   1.350       .  A
C1645      C1646   1.388       .  A
C1645      H1648   1.082       .  S
C1646      C1647   1.381       .  A
C1646      C3323   1.475       .  S
C1647      H1649   1.082       .  S
N1650      N1651   1.325       .  A
N1650      C1654   1.345       .  A
N1651      C1652   1.350       .  A
C1652      C1653   1.387       .  A
C1652      H1655   1.082       .  S
C1653      C1654   1.383       .  A
C1653      C1832   1.480       .  S
C1654      H1656   1.082       .  S
N1657      N1658   1.322       .  A
N1657      C1661   1.346       .  A
N1657     Cu1665   2.072       .  S
N1658      C1659   1.344       .  A
N1658     Cu1664   2.071       .  S
C1659      C1660   1.382       .  A
C1659      H1662   1.082       .  S
C1660      C1661   1.384       .  A
C1660      C2235   1.470       .  S
C1661      H1663   1.082       .  S
Cu1664     N1667   2.071       .  S
Cu1665     N1675   2.073       .  S
Cu1666     N1668   2.082       .  S
Cu1666     N1674   2.083       .  S
N1667      N1668   1.322       .  A
N1667      C1671   1.343       .  A
N1668      C1669   1.348       .  A
C1669      C1670   1.385       .  A
C1669      H1672   1.082       .  S
C1670      C1671   1.383       .  A
C1670      C2696   1.473       .  S
C1671      H1673   1.082       .  S
N1674      N1675   1.324       .  A
N1674      C1678   1.346       .  A
N1675      C1676   1.345       .  A
C1676      C1677   1.383       .  A
C1676      H1679   1.082       .  S
C1677      C1678   1.383       .  A
C1677      C1896   1.472       .  S
C1678      H1680   1.082       .  S
N1681      N1682   1.321       .  A
N1681      C1685   1.348       .  A
N1681     Cu1689   2.081       .  S
N1682      C1683   1.343       .  A
N1682     Cu1688   2.063       .  S
C1683      C1684   1.381       .  A
C1683      H1686   1.082       .  S
C1684      C1685   1.387       .  A
C1684      C3275   1.472       .  S
C1685      H1687   1.082       .  S
Cu1688     N1691   2.062       .  S
Cu1689     N1699   2.083       .  S
Cu1690     N1692   2.088       .  S
Cu1690     N1698   2.089       .  S
N1691      N1692   1.322       .  A
N1691      C1695   1.341       .  A
N1692      C1693   1.350       .  A
C1693      C1694   1.388       .  A
C1693      H1696   1.082       .  S
C1694      C1695   1.381       .  A
C1694      C2715   1.475       .  S
C1695      H1697   1.081       .  S
N1698      N1699   1.325       .  A
N1698      C1702   1.347       .  A
N1699      C1700   1.346       .  A
C1700      C1701   1.382       .  A
C1700      H1703   1.082       .  S
C1701      C1702   1.384       .  A
C1701      C1867   1.474       .  S
C1702      H1704   1.082       .  S
N1705      N1706   1.322       .  A
N1705      C1709   1.349       .  A
N1705     Cu1713   2.094       .  S
N1706      C1707   1.344       .  A
N1706     Cu1712   2.067       .  S
C1707      C1708   1.381       .  A
C1707      H1710   1.082       .  S
C1708      C1709   1.389       .  A
C1708      C2891   1.476       .  S
C1709      H1711   1.082       .  S
Cu1712     N1715   2.067       .  S
Cu1713     N1723   2.095       .  S
Cu1714     N1716   2.077       .  S
Cu1714     N1722   2.077       .  S
N1715      N1716   1.322       .  A
N1715      C1719   1.343       .  A
N1716      C1717   1.347       .  A
C1717      C1718   1.386       .  A
C1717      H1720   1.082       .  S
C1718      C1719   1.380       .  A
C1718      C2424   1.470       .  S
C1719      H1721   1.082       .  S
N1722      N1723   1.324       .  A
N1722      C1726   1.346       .  A
N1723      C1724   1.348       .  A
C1724      C1725   1.385       .  A
C1724      H1727   1.082       .  S
C1725      C1726   1.383       .  A
C1725      C1880   1.476       .  S
C1726      H1728   1.082       .  S
C1729      C1734   1.379   1_554  A
C1729      C1730   1.408       .  A
C1729      O1735   1.323       .  A
C1730      C1731   1.408   1_565  A
C1730      H1741   1.082       .  S
C1731      C1740   1.366       .  A
C1731      C1732   1.379   1_554  A
C1732      C1733   1.407   1_545  A
C1732      O1738   1.323       .  A
C1733      C1734   1.407       .  A
C1733      H1742   1.082       .  S
C1734      C1737   1.366       .  A
O1735      C1736   1.334       .  A
C1736      C1737   1.394   1_554  A
C1737      H1743   1.082       .  S
O1738      C1739   1.333   1_556  A
C1739      C1740   1.395       .  A
C1740      H1744   1.082       .  S
C1745      C1750   1.380   1_554  A
C1745      C1746   1.406       .  A
C1745      O1751   1.321       .  A
C1746      C1747   1.405   1_565  A
C1746      H1757   1.082       .  S
C1747      C1756   1.364       .  A
C1747      C1748   1.381       .  A
C1748      C1749   1.400   1_544  A
C1748      O1754   1.316   1_554  A
C1749      C1750   1.399       .  A
C1749      H1758   1.082       .  S
C1750      C1753   1.358       .  A
O1751      C1752   1.333       .  A
C1752      C1753   1.390   1_554  A
C1753      H1759   1.082       .  S
O1754      C1755   1.329   1_556  A
C1755      C1756   1.393       .  A
C1756      H1760   1.082       .  S
C1761      C1766   1.380   1_545  A
C1761      C1762   1.406       .  A
C1761      O1767   1.321       .  A
C1762      C1763   1.405       .  A
C1762      H1773   1.082       .  S
C1763      C1772   1.363       .  A
C1763      C1764   1.380   1_545  A
C1764      C1765   1.404       .  A
C1764      O1770   1.320       .  A
C1765      C1766   1.403       .  A
C1765      H1774   1.082       .  S
C1766      C1769   1.362       .  A
O1767      C1768   1.332   1_545  A
C1768      C1769   1.391       .  A
C1769      H1775   1.082       .  S
O1770      C1771   1.331       .  A
C1771      C1772   1.394   1_565  A
C1772      H1776   1.082       .  S
C1777      C1782   1.380   1_545  A
C1777      C1778   1.405       .  A
C1777      O1783   1.319       .  A
C1778      C1779   1.404       .  A
C1778      H1789   1.082       .  S
C1779      C1788   1.364       .  A
C1779      C1780   1.380   1_545  A
C1780      C1781   1.402       .  A
C1780      O1786   1.317       .  A
C1781      C1782   1.401       .  A
C1781      H1790   1.082       .  S
C1782      C1785   1.360       .  A
O1783      C1784   1.331   1_545  A
C1784      C1785   1.391       .  A
C1785      H1791   1.082       .  S
O1786      C1787   1.330       .  A
C1787      C1788   1.393   1_565  A
C1788      H1792   1.082       .  S
C1793      C1798   1.380       .  A
C1793      C1794   1.402       .  A
C1793      O1799   1.317       .  A
C1794      C1795   1.401   1_554  A
C1794      H1805   1.082       .  S
C1795      C1804   1.360       .  A
C1795      C1796   1.380       .  A
C1796      C1797   1.403   1_556  A
C1796      O1802   1.318       .  A
C1797      C1798   1.401       .  A
C1797      H1806   1.082       .  S
C1798      C1801   1.361       .  A
O1799      C1800   1.330       .  A
C1800      C1801   1.391       .  A
C1801      H1807   1.082       .  S
O1802      C1803   1.330       .  A
C1803      C1804   1.391       .  A
C1804      H1808   1.082       .  S
C1809      C1814   1.380       .  A
C1809      C1810   1.402       .  A
C1809      O1815   1.318       .  A
C1810      C1811   1.401   1_556  A
C1810      H1821   1.082       .  S
C1811      C1820   1.360       .  A
C1811      C1812   1.380       .  A
C1812      C1813   1.406   1_554  A
C1812      O1818   1.321       .  A
C1813      C1814   1.405       .  A
C1813      H1822   1.082   1_556  S
C1814      C1817   1.364       .  A
O1815      C1816   1.330       .  A
C1816      C1817   1.393       .  A
C1817      H1823   1.082       .  S
O1818      C1819   1.332       .  A
C1819      C1820   1.390       .  A
C1820      H1824   1.082       .  S
C1825      C1830   1.380       .  A
C1825      C1826   1.406       .  A
C1825      O1831   1.322       .  A
C1826      C1827   1.405       .  A
C1826      H1837   1.082       .  S
C1827      C1836   1.363       .  A
C1827      C1828   1.380       .  A
C1828      C1829   1.405       .  A
C1828      O1834   1.321       .  A
C1829      C1830   1.405       .  A
C1829      H1838   1.082       .  S
C1830      C1833   1.362       .  A
O1831      C1832   1.332       .  A
C1832      C1833   1.393       .  A
C1833      H1839   1.082       .  S
O1834      C1835   1.332       .  A
C1835      C1836   1.393       .  A
C1836      H1840   1.082       .  S
C1841      C1846   1.380       .  A
C1841      C1842   1.404       .  A
C1841      O1847   1.320       .  A
C1842      C1843   1.403       .  A
C1842      H1853   1.082       .  S
C1843      C1852   1.362       .  A
C1843      C1844   1.380       .  A
C1844      C1845   1.405       .  A
C1844      O1850   1.320       .  A
C1845      C1846   1.404       .  A
C1845      H1854   1.082       .  S
C1846      C1849   1.363       .  A
O1847      C1848   1.331       .  A
C1848      C1849   1.393       .  A
C1849      H1855   1.082       .  S
O1850      C1851   1.331       .  A
C1851      C1852   1.392       .  A
C1852      H1856   1.082       .  S
C1857      C1862   1.380       .  A
C1857      C1858   1.404       .  A
C1857      O1863   1.320       .  A
C1858      C1859   1.404       .  A
C1858      H1869   1.082       .  S
C1859      C1868   1.363       .  A
C1859      C1860   1.380       .  A
C1860      C1861   1.404       .  A
C1860      O1866   1.319       .  A
C1861      C1862   1.403       .  A
C1861      H1870   1.082       .  S
C1862      C1865   1.362       .  A
O1863      C1864   1.332       .  A
C1864      C1865   1.392       .  A
C1865      H1871   1.082       .  S
O1866      C1867   1.331       .  A
C1867      C1868   1.392       .  A
C1868      H1872   1.082       .  S
C1873      C1878   1.380       .  A
C1873      C1874   1.403       .  A
C1873      O1879   1.320       .  A
C1874      C1875   1.403       .  A
C1874      H1885   1.082       .  S
C1875      C1884   1.362       .  A
C1875      C1876   1.380       .  A
C1876      C1877   1.406       .  A
C1876      O1882   1.321       .  A
C1877      C1878   1.405       .  A
C1877      H1886   1.082       .  S
C1878      C1881   1.364       .  A
O1879      C1880   1.331       .  A
C1880      C1881   1.394       .  A
C1881      H1887   1.082       .  S
O1882      C1883   1.333       .  A
C1883      C1884   1.392       .  A
C1884      H1888   1.082       .  S
C1889      C1894   1.380       .  A
C1889      C1890   1.403       .  A
C1889      O1895   1.319       .  A
C1890      C1891   1.402       .  A
C1890      H1901   1.082       .  S
C1891      C1900   1.361       .  A
C1891      C1892   1.380       .  A
C1892      C1893   1.404       .  A
C1892      O1898   1.320       .  A
C1893      C1894   1.404       .  A
C1893      H1902   1.082       .  S
C1894      C1897   1.362       .  A
O1895      C1896   1.330       .  A
C1896      C1897   1.392       .  A
C1897      H1903   1.082       .  S
O1898      C1899   1.332       .  A
C1899      C1900   1.391       .  A
C1900      H1904   1.082       .  S
C1905      C1910   1.380       .  A
C1905      C1906   1.406       .  A
C1905      O1911   1.320       .  A
C1906      C1907   1.405       .  A
C1906      H1917   1.082       .  S
C1907      C1916   1.365       .  A
C1907      C1908   1.380       .  A
C1908      C1909   1.407       .  A
C1908      O1914   1.321       .  A
C1909      C1910   1.406       .  A
C1909      H1918   1.082       .  S
C1910      C1913   1.367       .  A
O1911      C1912   1.332       .  A
C1912      C1913   1.394       .  A
C1913      H1919   1.082       .  S
O1914      C1915   1.333       .  A
C1915      C1916   1.393       .  A
C1916      H1920   1.082       .  S
C1921      C1926   1.380       .  A
C1921      C1922   1.402       .  A
C1921      O1927   1.318       .  A
C1922      C1923   1.402       .  A
C1922      H1933   1.082       .  S
C1923      C1932   1.360       .  A
C1923      C1924   1.380       .  A
C1924      C1925   1.406       .  A
C1924      O1930   1.321       .  A
C1925      C1926   1.406       .  A
C1925      H1934   1.082       .  S
C1926      C1929   1.365       .  A
O1927      C1928   1.331       .  A
C1928      C1929   1.393       .  A
C1929      H1935   1.082       .  S
O1930      C1931   1.332       .  A
C1931      C1932   1.392       .  A
C1932      H1936   1.082       .  S
C1937      C1942   1.380       .  A
C1937      C1938   1.406       .  A
C1937      O1943   1.320       .  A
C1938      C1939   1.405       .  A
C1938      H1949   1.082       .  S
C1939      C1948   1.365       .  A
C1939      C1940   1.381       .  A
C1940      C1941   1.399       .  A
C1940      O1946   1.314       .  A
C1941      C1942   1.397       .  A
C1941      H1950   1.082       .  S
C1942      C1945   1.357       .  A
O1943      C1944   1.332       .  A
C1944      C1945   1.389       .  A
C1945      H1951   1.082       .  S
O1946      C1947   1.328       .  A
C1947      C1948   1.393       .  A
C1948      H1952   1.082       .  S
C1953      C1958   1.380       .  A
C1953      C1954   1.406       .  A
C1953      O1959   1.321       .  A
C1954      C1955   1.405       .  A
C1954      H1965   1.082       .  S
C1955      C1964   1.365       .  A
C1955      C1956   1.381       .  A
C1956      C1957   1.402       .  A
C1956      O1962   1.317       .  A
C1957      C1958   1.401       .  A
C1957      H1966   1.082       .  S
C1958      C1961   1.359       .  A
O1959      C1960   1.331       .  A
C1960      C1961   1.390       .  A
C1961      H1967   1.082       .  S
O1962      C1963   1.330       .  A
C1963      C1964   1.391       .  A
C1964      H1968   1.082       .  S
C1969      C1974   1.380       .  A
C1969      C1970   1.404       .  A
C1969      O1975   1.319       .  A
C1970      C1971   1.403       .  A
C1970      H1981   1.082       .  S
C1971      C1980   1.362       .  A
C1971      C1972   1.380       .  A
C1972      C1973   1.404       .  A
C1972      O1978   1.320       .  A
C1973      C1974   1.403       .  A
C1973      H1982   1.082       .  S
C1974      C1977   1.363       .  A
O1975      C1976   1.331       .  A
C1976      C1977   1.392       .  A
C1977      H1983   1.082       .  S
O1978      C1979   1.331       .  A
C1979      C1980   1.392       .  A
C1980      H1984   1.082       .  S
C1985      C1990   1.381       .  A
C1985      C1986   1.398       .  A
C1985      O1991   1.314       .  A
C1986      C1987   1.397       .  A
C1986      H1997   1.082       .  S
C1987      C1996   1.356       .  A
C1987      C1988   1.380       .  A
C1988      C1989   1.408       .  A
C1988      O1994   1.323       .  A
C1989      C1990   1.407       .  A
C1989      H1998   1.082       .  S
C1990      C1993   1.367       .  A
O1991      C1992   1.328       .  A
C1992      C1993   1.394       .  A
C1993      H1999   1.082       .  S
O1994      C1995   1.333       .  A
C1995      C1996   1.388       .  A
C1996      H2000   1.083       .  S
C2001      C2006   1.380       .  A
C2001      C2002   1.401       .  A
C2001      O2007   1.317       .  A
C2002      C2003   1.400       .  A
C2002      H2013   1.082       .  S
C2003      C2012   1.358       .  A
C2003      C2004   1.380       .  A
C2004      C2005   1.407       .  A
C2004      O2010   1.323       .  A
C2005      C2006   1.406       .  A
C2005      H2014   1.082       .  S
C2006      C2009   1.366       .  A
O2007      C2008   1.330       .  A
C2008      C2009   1.393       .  A
C2009      H2015   1.082       .  S
O2010      C2011   1.332       .  A
C2011      C2012   1.392       .  A
C2012      H2016   1.082       .  S
C2017      C2022   1.381       .  A
C2017      C2018   1.405       .  A
C2017      O2023   1.322       .  A
C2018      C2019   1.405       .  A
C2018      H2029   1.082       .  S
C2019      C2028   1.363       .  A
C2019      C2020   1.380       .  A
C2020      C2021   1.402       .  A
C2020      O2026   1.318       .  A
C2021      C2022   1.402       .  A
C2021      H2030   1.082       .  S
C2022      C2025   1.359       .  A
O2023      C2024   1.331       .  A
C2024      C2025   1.390       .  A
C2025      H2031   1.082       .  S
O2026      C2027   1.330       .  A
C2027      C2028   1.391       .  A
C2028      H2032   1.082       .  S
C2033      C2038   1.380       .  A
C2033      C2034   1.401       .  A
C2033      O2039   1.316       .  A
C2034      C2035   1.400       .  A
C2034      H2045   1.082       .  S
C2035      C2044   1.360       .  A
C2035      C2036   1.380       .  A
C2036      C2037   1.405       .  A
C2036      O2042   1.319       .  A
C2037      C2038   1.404       .  A
C2037      H2046   1.082       .  S
C2038      C2041   1.364       .  A
O2039      C2040   1.329       .  A
C2040      C2041   1.392       .  A
C2041      H2047   1.082       .  S
O2042      C2043   1.332       .  A
C2043      C2044   1.390       .  A
C2044      H2048   1.082       .  S
C2049      C2054   1.380       .  A
C2049      C2050   1.404       .  A
C2049      O2055   1.319       .  A
C2050      C2051   1.403       .  A
C2050      H2061   1.082       .  S
C2051      C2060   1.363       .  A
C2051      C2052   1.380       .  A
C2052      C2053   1.404       .  A
C2052      O2058   1.319       .  A
C2053      C2054   1.403       .  A
C2053      H2062   1.082       .  S
C2054      C2057   1.363       .  A
O2055      C2056   1.331       .  A
C2056      C2057   1.391       .  A
C2057      H2063   1.082       .  S
O2058      C2059   1.331       .  A
C2059      C2060   1.391       .  A
C2060      H2064   1.082       .  S
C2065      C2070   1.380       .  A
C2065      C2066   1.409       .  A
C2065      O2071   1.323       .  A
C2066      C2067   1.408       .  A
C2066      H2077   1.082       .  S
C2067      C2076   1.367       .  A
C2067      C2068   1.380       .  A
C2068      C2069   1.401       .  A
C2068      O2074   1.317       .  A
C2069      C2070   1.401       .  A
C2069      H2078   1.082       .  S
C2070      C2073   1.360       .  A
O2071      C2072   1.334       .  A
C2072      C2073   1.391       .  A
C2073      H2079   1.082       .  S
O2074      C2075   1.330       .  A
C2075      C2076   1.394       .  A
C2076      H2080   1.082       .  S
C2081      C2086   1.380       .  A
C2081      C2082   1.405       .  A
C2081      O2087   1.321       .  A
C2082      C2083   1.405       .  A
C2082      H2093   1.082       .  S
C2083      C2092   1.363       .  A
C2083      C2084   1.380       .  A
C2084      C2085   1.403       .  A
C2084      O2090   1.319       .  A
C2085      C2086   1.402       .  A
C2085      H2094   1.082       .  S
C2086      C2089   1.361       .  A
O2087      C2088   1.332       .  A
C2088      C2089   1.390       .  A
C2089      H2095   1.082       .  S
O2090      C2091   1.330       .  A
C2091      C2092   1.392       .  A
C2092      H2096   1.082       .  S
C2097      C2102   1.381       .  A
C2097      C2098   1.400       .  A
C2097      O2103   1.318       .  A
C2098      C2099   1.400       .  A
C2098      H2109   1.082       .  S
C2099      C2108   1.357       .  A
C2099      C2100   1.380       .  A
C2100      C2101   1.406       .  A
C2100      O2106   1.322       .  A
C2101      C2102   1.406       .  A
C2101      H2110   1.082       .  S
C2102      C2105   1.364       .  A
O2103      C2104   1.329       .  A
C2104      C2105   1.393       .  A
C2105      H2111   1.082       .  S
O2106      C2107   1.332       .  A
C2107      C2108   1.389       .  A
C2108      H2112   1.082       .  S
C2113      C2118   1.380       .  A
C2113      C2114   1.405       .  A
C2113      O2119   1.320       .  A
C2114      C2115   1.404       .  A
C2114      H2125   1.082       .  S
C2115      C2124   1.365       .  A
C2115      C2116   1.380       .  A
C2116      C2117   1.402       .  A
C2116      O2122   1.316       .  A
C2117      C2118   1.401       .  A
C2117      H2126   1.082       .  S
C2118      C2121   1.360       .  A
O2119      C2120   1.332       .  A
C2120      C2121   1.391       .  A
C2121      H2127   1.082       .  S
O2122      C2123   1.330       .  A
C2123      C2124   1.391       .  A
C2124      H2128   1.082       .  S
C2129      C2134   1.380       .  A
C2129      C2130   1.407       .  A
C2129      O2135   1.322       .  A
C2130      C2131   1.406       .  A
C2130      H2141   1.082       .  S
C2131      C2140   1.365       .  A
C2131      C2132   1.380       .  A
C2132      C2133   1.400       .  A
C2132      O2138   1.317       .  A
C2133      C2134   1.400       .  A
C2133      H2142   1.082       .  S
C2134      C2137   1.357       .  A
O2135      C2136   1.333       .  A
C2136      C2137   1.390       .  A
C2137      H2143   1.082       .  S
O2138      C2139   1.329       .  A
C2139      C2140   1.393       .  A
C2140      H2144   1.082       .  S
C2145      C2150   1.380       .  A
C2145      C2146   1.404       .  A
C2145      O2151   1.318       .  A
C2146      C2147   1.403       .  A
C2146      H2157   1.082       .  S
C2147      C2156   1.363       .  A
C2147      C2148   1.380       .  A
C2148      C2149   1.403       .  A
C2148      O2154   1.318       .  A
C2149      C2150   1.402       .  A
C2149      H2158   1.082       .  S
C2150      C2153   1.362       .  A
O2151      C2152   1.331       .  A
C2152      C2153   1.391       .  A
C2153      H2159   1.082       .  S
O2154      C2155   1.330       .  A
C2155      C2156   1.391       .  A
C2156      H2160   1.082       .  S
C2161      C2166   1.380       .  A
C2161      C2162   1.401       .  A
C2161      O2167   1.316       .  A
C2162      C2163   1.399       .  A
C2162      H2173   1.082       .  S
C2163      C2172   1.358       .  A
C2163      C2164   1.380       .  A
C2164      C2165   1.406       .  A
C2164      O2170   1.320       .  A
C2165      C2166   1.405       .  A
C2165      H2174   1.082       .  S
C2166      C2169   1.365       .  A
O2167      C2168   1.329       .  A
C2168      C2169   1.393       .  A
C2169      H2175   1.082       .  S
O2170      C2171   1.332       .  A
C2171      C2172   1.390       .  A
C2172      H2176   1.082       .  S
C2177      C2182   1.381       .  A
C2177      C2178   1.401       .  A
C2177      O2183   1.317       .  A
C2178      C2179   1.401       .  A
C2178      H2189   1.082       .  S
C2179      C2188   1.359       .  A
C2179      C2180   1.381       .  A
C2180      C2181   1.404       .  A
C2180      O2186   1.319       .  A
C2181      C2182   1.403       .  A
C2181      H2190   1.082       .  S
C2182      C2185   1.362       .  A
O2183      C2184   1.329       .  A
C2184      C2185   1.391       .  A
C2185      H2191   1.082       .  S
O2186      C2187   1.330       .  A
C2187      C2188   1.389       .  A
C2188      H2192   1.082       .  S
C2193      C2198   1.380       .  A
C2193      C2194   1.404       .  A
C2193      O2199   1.319       .  A
C2194      C2195   1.403       .  A
C2194      H2205   1.082       .  S
C2195      C2204   1.363       .  A
C2195      C2196   1.380       .  A
C2196      C2197   1.404       .  A
C2196      O2202   1.318       .  A
C2197      C2198   1.403       .  A
C2197      H2206   1.082       .  S
C2198      C2201   1.362       .  A
O2199      C2200   1.331       .  A
C2200      C2201   1.392       .  A
C2201      H2207   1.082       .  S
O2202      C2203   1.331       .  A
C2203      C2204   1.391       .  A
C2204      H2208   1.082       .  S
C2209      C2214   1.380       .  A
C2209      C2210   1.403       .  A
C2209      O2215   1.319       .  A
C2210      C2211   1.402       .  A
C2210      H2221   1.082       .  S
C2211      C2220   1.360       .  A
C2211      C2212   1.380       .  A
C2212      C2213   1.404       .  A
C2212      O2218   1.321       .  A
C2213      C2214   1.404       .  A
C2213      H2222   1.082       .  S
C2214      C2217   1.362       .  A
O2215      C2216   1.330       .  A
C2216      C2217   1.392       .  A
C2217      H2223   1.082       .  S
O2218      C2219   1.331       .  A
C2219      C2220   1.390       .  A
C2220      H2224   1.082       .  S
C2225      C2230   1.380       .  A
C2225      C2226   1.405       .  A
C2225      O2231   1.321       .  A
C2226      C2227   1.405       .  A
C2226      H2237   1.082       .  S
C2227      C2236   1.364       .  A
C2227      C2228   1.381       .  A
C2228      C2229   1.401       .  A
C2228      O2234   1.317       .  A
C2229      C2230   1.400       .  A
C2229      H2238   1.082       .  S
C2230      C2233   1.358       .  A
O2231      C2232   1.332       .  A
C2232      C2233   1.390       .  A
C2233      H2239   1.082       .  S
O2234      C2235   1.329       .  A
C2235      C2236   1.392       .  A
C2236      H2240   1.082       .  S
C2241      C2246   1.380       .  A
C2241      C2242   1.403       .  A
C2241      O2247   1.317       .  A
C2242      C2243   1.402       .  A
C2242      H2253   1.082       .  S
C2243      C2252   1.362       .  A
C2243      C2244   1.380       .  A
C2244      C2245   1.404       .  A
C2244      O2250   1.318       .  A
C2245      C2246   1.402       .  A
C2245      H2254   1.082       .  S
C2246      C2249   1.363       .  A
O2247      C2248   1.330       .  A
C2248      C2249   1.391       .  A
C2249      H2255   1.082       .  S
O2250      C2251   1.330       .  A
C2251      C2252   1.391       .  A
C2252      H2256   1.082       .  S
C2257      C2262   1.380       .  A
C2257      C2258   1.400       .  A
C2257      O2263   1.316       .  A
C2258      C2259   1.399       .  A
C2258      H2269   1.082       .  S
C2259      C2268   1.357       .  A
C2259      C2260   1.380       .  A
C2260      C2261   1.407       .  A
C2260      O2266   1.322       .  A
C2261      C2262   1.406       .  A
C2261      H2270   1.082       .  S
C2262      C2265   1.366       .  A
O2263      C2264   1.329       .  A
C2264      C2265   1.393       .  A
C2265      H2271   1.082       .  S
O2266      C2267   1.332       .  A
C2267      C2268   1.390       .  A
C2268      H2272   1.082       .  S
C2273      C2278   1.381       .  A
C2273      C2274   1.401       .  A
C2273      O2279   1.318       .  A
C2274      C2275   1.401       .  A
C2274      H2285   1.082       .  S
C2275      C2284   1.358       .  A
C2275      C2276   1.381       .  A
C2276      C2277   1.403       .  A
C2276      O2282   1.320       .  A
C2277      C2278   1.403       .  A
C2277      H2286   1.082       .  S
C2278      C2281   1.361       .  A
O2279      C2280   1.329       .  A
C2280      C2281   1.390       .  A
C2281      H2287   1.082       .  S
O2282      C2283   1.331       .  A
C2283      C2284   1.391       .  A
C2284      H2288   1.082       .  S
C2289      C2294   1.381       .  A
C2289      C2290   1.404       .  A
C2289      O2295   1.320       .  A
C2290      C2291   1.404       .  A
C2290      H2301   1.082       .  S
C2291      C2300   1.362       .  A
C2291      C2292   1.381       .  A
C2292      C2293   1.402       .  A
C2292      O2298   1.319       .  A
C2293      C2294   1.402       .  A
C2293      H2302   1.082       .  S
C2294      C2297   1.360       .  A
O2295      C2296   1.331       .  A
C2296      C2297   1.390       .  A
C2297      H2303   1.082       .  S
O2298      C2299   1.330       .  A
C2299      C2300   1.391       .  A
C2300      H2304   1.082       .  S
C2305      C2310   1.380       .  A
C2305      C2306   1.407       .  A
C2305      O2311   1.322       .  A
C2306      C2307   1.406       .  A
C2306      H2317   1.082       .  S
C2307      C2316   1.366       .  A
C2307      C2308   1.380       .  A
C2308      C2309   1.405       .  A
C2308      O2314   1.319       .  A
C2309      C2310   1.404       .  A
C2309      H2318   1.082       .  S
C2310      C2313   1.363       .  A
O2311      C2312   1.333       .  A
C2312      C2313   1.392       .  A
C2313      H2319   1.082       .  S
O2314      C2315   1.332       .  A
C2315      C2316   1.393       .  A
C2316      H2320   1.082       .  S
C2321      C2326   1.380       .  A
C2321      C2322   1.403       .  A
C2321      O2327   1.320       .  A
C2322      C2323   1.403       .  A
C2322      H2333   1.082       .  S
C2323      C2332   1.360       .  A
C2323      C2324   1.380       .  A
C2324      C2325   1.404       .  A
C2324      O2330   1.321       .  A
C2325      C2326   1.404       .  A
C2325      H2334   1.082       .  S
C2326      C2329   1.361       .  A
O2327      C2328   1.331       .  A
C2328      C2329   1.392       .  A
C2329      H2335   1.082       .  S
O2330      C2331   1.331       .  A
C2331      C2332   1.392       .  A
C2332      H2336   1.082       .  S
C2337      C2342   1.380       .  A
C2337      C2338   1.407       .  A
C2337      O2343   1.321       .  A
C2338      C2339   1.406       .  A
C2338      H2349   1.082       .  S
C2339      C2348   1.368       .  A
C2339      C2340   1.380       .  A
C2340      C2341   1.400       .  A
C2340      O2346   1.315       .  A
C2341      C2342   1.399       .  A
C2341      H2350   1.082       .  S
C2342      C2345   1.358       .  A
O2343      C2344   1.332       .  A
C2344      C2345   1.390       .  A
C2345      H2351   1.082       .  S
O2346      C2347   1.329       .  A
C2347      C2348   1.392       .  A
C2348      H2352   1.082       .  S
C2353      C2358   1.380       .  A
C2353      C2354   1.406       .  A
C2353      O2359   1.322       .  A
C2354      C2355   1.406       .  A
C2354      H2365   1.082       .  S
C2355      C2364   1.364       .  A
C2355      C2356   1.381       .  A
C2356      C2357   1.398       .  A
C2356      O2362   1.315       .  A
C2357      C2358   1.398       .  A
C2357      H2366   1.082       .  S
C2358      C2361   1.355       .  A
O2359      C2360   1.333       .  A
C2360      C2361   1.389       .  A
C2361      H2367   1.082       .  S
O2362      C2363   1.328       .  A
C2363      C2364   1.393       .  A
C2364      H2368   1.082       .  S
C2369      C2374   1.381       .  A
C2369      C2370   1.400       .  A
C2369      O2375   1.315       .  A
C2370      C2371   1.399       .  A
C2370      H2381   1.082       .  S
C2371      C2380   1.358       .  A
C2371      C2372   1.381       .  A
C2372      C2373   1.405       .  A
C2372      O2378   1.320       .  A
C2373      C2374   1.404       .  A
C2373      H2382   1.082       .  S
C2374      C2377   1.364       .  A
O2375      C2376   1.329       .  A
C2376      C2377   1.391       .  A
C2377      H2383   1.082       .  S
O2378      C2379   1.331       .  A
C2379      C2380   1.389       .  A
C2380      H2384   1.082       .  S
C2385      C2390   1.380       .  A
C2385      C2386   1.406       .  A
C2385      O2391   1.322       .  A
C2386      C2387   1.406       .  A
C2386      H2397   1.082       .  S
C2387      C2396   1.365       .  A
C2387      C2388   1.381       .  A
C2388      C2389   1.400       .  A
C2388      O2394   1.316       .  A
C2389      C2390   1.399       .  A
C2389      H2398   1.082       .  S
C2390      C2393   1.356       .  A
O2391      C2392   1.332       .  A
C2392      C2393   1.391       .  A
C2393      H2399   1.082       .  S
O2394      C2395   1.329       .  A
C2395      C2396   1.393       .  A
C2396      H2400   1.082       .  S
C2401      C2406   1.381       .  A
C2401      C2402   1.403       .  A
C2401      O2407   1.320       .  A
C2402      C2403   1.403       .  A
C2402      H2413   1.082       .  S
C2403      C2412   1.361       .  A
C2403      C2404   1.381       .  A
C2404      C2405   1.403       .  A
C2404      O2410   1.320       .  A
C2405      C2406   1.403       .  A
C2405      H2414   1.082       .  S
C2406      C2409   1.360       .  A
O2407      C2408   1.331       .  A
C2408      C2409   1.391       .  A
C2409      H2415   1.082       .  S
O2410      C2411   1.330       .  A
C2411      C2412   1.391       .  A
C2412      H2416   1.082       .  S
C2417      C2422   1.380       .  A
C2417      C2418   1.402       .  A
C2417      O2423   1.317       .  A
C2418      C2419   1.401       .  A
C2418      H2429   1.082       .  S
C2419      C2428   1.360       .  A
C2419      C2420   1.380       .  A
C2420      C2421   1.405       .  A
C2420      O2426   1.320       .  A
C2421      C2422   1.404       .  A
C2421      H2430   1.082       .  S
C2422      C2425   1.364       .  A
O2423      C2424   1.330       .  A
C2424      C2425   1.392       .  A
C2425      H2431   1.082       .  S
O2426      C2427   1.332       .  A
C2427      C2428   1.391       .  A
C2428      H2432   1.082       .  S
C2433      C2438   1.380       .  A
C2433      C2434   1.407       .  A
C2433      O2439   1.321       .  A
C2434      C2435   1.406       .  A
C2434      H2445   1.082       .  S
C2435      C2444   1.367       .  A
C2435      C2436   1.381       .  A
C2436      C2437   1.399       .  A
C2436      O2442   1.313       .  A
C2437      C2438   1.398       .  A
C2437      H2446   1.082       .  S
C2438      C2441   1.357       .  A
O2439      C2440   1.332       .  A
C2440      C2441   1.389       .  A
C2441      H2447   1.082       .  S
O2442      C2443   1.328       .  A
C2443      C2444   1.393       .  A
C2444      H2448   1.082       .  S
C2449      C2454   1.380       .  A
C2449      C2450   1.401       .  A
C2449      O2455   1.316       .  A
C2450      C2451   1.400       .  A
C2450      H2461   1.082       .  S
C2451      C2460   1.358       .  A
C2451      C2452   1.380       .  A
C2452      C2453   1.407       .  A
C2452      O2458   1.322       .  A
C2453      C2454   1.407       .  A
C2453      H2462   1.082       .  S
C2454      C2457   1.367       .  A
O2455      C2456   1.329       .  A
C2456      C2457   1.394       .  A
C2457      H2463   1.082       .  S
O2458      C2459   1.333       .  A
C2459      C2460   1.391       .  A
C2460      H2464   1.082       .  S
C2465      C2470   1.381       .  A
C2465      C2466   1.402       .  A
C2465      O2471   1.318       .  A
C2466      C2467   1.402       .  A
C2466      H2477   1.082       .  S
C2467      C2476   1.360       .  A
C2467      C2468   1.381       .  A
C2468      C2469   1.402       .  A
C2468      O2474   1.318       .  A
C2469      C2470   1.401       .  A
C2469      H2478   1.082       .  S
C2470      C2473   1.359       .  A
O2471      C2472   1.330       .  A
C2472      C2473   1.390       .  A
C2473      H2479   1.082       .  S
O2474      C2475   1.330       .  A
C2475      C2476   1.390       .  A
C2476      H2480   1.082       .  S
C2481      C2486   1.380       .  A
C2481      C2482   1.403       .  A
C2481      O2487   1.319       .  A
C2482      C2483   1.403       .  A
C2482      H2493   1.082       .  S
C2483      C2492   1.362       .  A
C2483      C2484   1.380       .  A
C2484      C2485   1.404       .  A
C2484      O2490   1.319       .  A
C2485      C2486   1.403       .  A
C2485      H2494   1.082       .  S
C2486      C2489   1.363       .  A
O2487      C2488   1.331       .  A
C2488      C2489   1.391       .  A
C2489      H2495   1.082       .  S
O2490      C2491   1.331       .  A
C2491      C2492   1.391       .  A
C2492      H2496   1.082       .  S
C2497      C2502   1.380       .  A
C2497      C2498   1.407       .  A
C2497      O2503   1.321       .  A
C2498      C2499   1.406       .  A
C2498      H2509   1.082       .  S
C2499      C2508   1.366       .  A
C2499      C2500   1.381       .  A
C2500      C2501   1.399       .  A
C2500      O2506   1.315       .  A
C2501      C2502   1.399       .  A
C2501      H2510   1.082       .  S
C2502      C2505   1.357       .  A
O2503      C2504   1.333       .  A
C2504      C2505   1.389       .  A
C2505      H2511   1.082       .  S
O2506      C2507   1.328       .  A
C2507      C2508   1.393       .  A
C2508      H2512   1.082       .  S
C2513      C2518   1.381       .  A
C2513      C2514   1.400       .  A
C2513      O2519   1.317       .  A
C2514      C2515   1.400       .  A
C2514      H2525   1.082       .  S
C2515      C2524   1.358       .  A
C2515      C2516   1.380       .  A
C2516      C2517   1.406       .  A
C2516      O2522   1.321       .  A
C2517      C2518   1.405       .  A
C2517      H2526   1.082       .  S
C2518      C2521   1.364       .  A
O2519      C2520   1.329       .  A
C2520      C2521   1.393       .  A
C2521      H2527   1.082       .  S
O2522      C2523   1.333       .  A
C2523      C2524   1.390       .  A
C2524      H2528   1.082       .  S
C2529      C2534   1.380       .  A
C2529      C2530   1.404       .  A
C2529      O2535   1.318       .  A
C2530      C2531   1.403       .  A
C2530      H2541   1.082       .  S
C2531      C2540   1.364       .  A
C2531      C2532   1.380       .  A
C2532      C2533   1.402       .  A
C2532      O2538   1.316       .  A
C2533      C2534   1.400       .  A
C2533      H2542   1.082       .  S
C2534      C2537   1.361       .  A
O2535      C2536   1.331       .  A
C2536      C2537   1.390       .  A
C2537      H2543   1.082       .  S
O2538      C2539   1.329       .  A
C2539      C2540   1.391       .  A
C2540      H2544   1.082       .  S
C2545      C2550   1.380       .  A
C2545      C2546   1.404       .  A
C2545      O2551   1.319       .  A
C2546      C2547   1.403       .  A
C2546      H2557   1.082       .  S
C2547      C2556   1.364       .  A
C2547      C2548   1.380       .  A
C2548      C2549   1.402       .  A
C2548      O2554   1.316       .  A
C2549      C2550   1.401       .  A
C2549      H2558   1.082       .  S
C2550      C2553   1.360       .  A
O2551      C2552   1.331       .  A
C2552      C2553   1.391       .  A
C2553      H2559   1.082       .  S
O2554      C2555   1.330       .  A
C2555      C2556   1.391       .  A
C2556      H2560   1.082       .  S
C2561      C2566   1.381       .  A
C2561      C2562   1.401       .  A
C2561      O2567   1.316       .  A
C2562      C2563   1.400       .  A
C2562      H2573   1.082       .  S
C2563      C2572   1.360       .  A
C2563      C2564   1.381       .  A
C2564      C2565   1.404       .  A
C2564      O2570   1.318       .  A
C2565      C2566   1.403       .  A
C2565      H2574   1.082       .  S
C2566      C2569   1.362       .  A
O2567      C2568   1.329       .  A
C2568      C2569   1.391       .  A
C2569      H2575   1.082       .  S
O2570      C2571   1.331       .  A
C2571      C2572   1.390       .  A
C2572      H2576   1.082       .  S
C2577      C2582   1.380       .  A
C2577      C2578   1.408       .  A
C2577      O2583   1.323       .  A
C2578      C2579   1.407       .  A
C2578      H2589   1.082       .  S
C2579      C2588   1.368       .  A
C2579      C2580   1.380       .  A
C2580      C2581   1.403       .  A
C2580      O2586   1.318       .  A
C2581      C2582   1.402       .  A
C2581      H2590   1.082       .  S
C2582      C2585   1.361       .  A
O2583      C2584   1.333       .  A
C2584      C2585   1.392       .  A
C2585      H2591   1.082       .  S
O2586      C2587   1.331       .  A
C2587      C2588   1.394       .  A
C2588      H2592   1.082       .  S
C2593      C2598   1.380       .  A
C2593      C2594   1.403       .  A
C2593      O2599   1.320       .  A
C2594      C2595   1.403       .  A
C2594      H2605   1.082       .  S
C2595      C2604   1.361       .  A
C2595      C2596   1.380       .  A
C2596      C2597   1.404       .  A
C2596      O2602   1.321       .  A
C2597      C2598   1.404       .  A
C2597      H2606   1.082       .  S
C2598      C2601   1.362       .  A
O2599      C2600   1.331       .  A
C2600      C2601   1.392       .  A
C2601      H2607   1.082       .  S
O2602      C2603   1.331       .  A
C2603      C2604   1.392       .  A
C2604      H2608   1.082       .  S
C2609      C2614   1.380       .  A
C2609      C2610   1.401       .  A
C2609      O2615   1.316       .  A
C2610      C2611   1.400       .  A
C2610      H2621   1.082       .  S
C2611      C2620   1.359       .  A
C2611      C2612   1.380       .  A
C2612      C2613   1.406       .  A
C2612      O2618   1.321       .  A
C2613      C2614   1.405       .  A
C2613      H2622   1.082       .  S
C2614      C2617   1.366       .  A
O2615      C2616   1.330       .  A
C2616      C2617   1.393       .  A
C2617      H2623   1.082       .  S
O2618      C2619   1.332       .  A
C2619      C2620   1.390       .  A
C2620      H2624   1.082       .  S
C2625      C2630   1.380       .  A
C2625      C2626   1.402       .  A
C2625      O2631   1.317       .  A
C2626      C2627   1.401       .  A
C2626      H2637   1.082       .  S
C2627      C2636   1.361       .  A
C2627      C2628   1.380       .  A
C2628      C2629   1.405       .  A
C2628      O2634   1.320       .  A
C2629      C2630   1.404       .  A
C2629      H2638   1.082       .  S
C2630      C2633   1.364       .  A
O2631      C2632   1.330       .  A
C2632      C2633   1.392       .  A
C2633      H2639   1.082       .  S
O2634      C2635   1.332       .  A
C2635      C2636   1.390       .  A
C2636      H2640   1.082       .  S
C2641      C2646   1.380       .  A
C2641      C2642   1.407       .  A
C2641      O2647   1.322       .  A
C2642      C2643   1.407       .  A
C2642      H2653   1.082       .  S
C2643      C2652   1.366       .  A
C2643      C2644   1.380       .  A
C2644      C2645   1.400       .  A
C2644      O2650   1.317       .  A
C2645      C2646   1.400       .  A
C2645      H2654   1.082       .  S
C2646      C2649   1.358       .  A
O2647      C2648   1.333       .  A
C2648      C2649   1.390       .  A
C2649      H2655   1.082       .  S
O2650      C2651   1.329       .  A
C2651      C2652   1.394       .  A
C2652      H2656   1.082       .  S
C2657      C2662   1.380       .  A
C2657      C2658   1.403       .  A
C2657      O2663   1.318       .  A
C2658      C2659   1.402       .  A
C2658      H2669   1.082       .  S
C2659      C2668   1.362       .  A
C2659      C2660   1.380       .  A
C2660      C2661   1.403       .  A
C2660      O2666   1.318       .  A
C2661      C2662   1.402       .  A
C2661      H2670   1.082       .  S
C2662      C2665   1.362       .  A
O2663      C2664   1.330       .  A
C2664      C2665   1.390       .  A
C2665      H2671   1.082       .  S
O2666      C2667   1.330       .  A
C2667      C2668   1.391       .  A
C2668      H2672   1.082       .  S
C2673      C2678   1.380       .  A
C2673      C2674   1.405       .  A
C2673      O2679   1.320       .  A
C2674      C2675   1.404       .  A
C2674      H2685   1.082       .  S
C2675      C2684   1.364       .  A
C2675      C2676   1.381       .  A
C2676      C2677   1.400       .  A
C2676      O2682   1.316       .  A
C2677      C2678   1.399       .  A
C2677      H2686   1.082       .  S
C2678      C2681   1.358       .  A
O2679      C2680   1.332       .  A
C2680      C2681   1.389       .  A
C2681      H2687   1.082       .  S
O2682      C2683   1.329       .  A
C2683      C2684   1.392       .  A
C2684      H2688   1.082       .  S
C2689      C2694   1.380       .  A
C2689      C2690   1.406       .  A
C2689      O2695   1.321       .  A
C2690      C2691   1.405       .  A
C2690      H2701   1.082       .  S
C2691      C2700   1.365       .  A
C2691      C2692   1.380       .  A
C2692      C2693   1.401       .  A
C2692      O2698   1.317       .  A
C2693      C2694   1.400       .  A
C2693      H2702   1.082       .  S
C2694      C2697   1.358       .  A
O2695      C2696   1.332       .  A
C2696      C2697   1.391       .  A
C2697      H2703   1.082       .  S
O2698      C2699   1.330       .  A
C2699      C2700   1.393       .  A
C2700      H2704   1.082       .  S
C2705      C2710   1.380       .  A
C2705      C2706   1.402       .  A
C2705      O2711   1.320       .  A
C2706      C2707   1.402       .  A
C2706      H2717   1.082       .  S
C2707      C2716   1.358       .  A
C2707      C2708   1.380       .  A
C2708      C2709   1.405       .  A
C2708      O2714   1.322       .  A
C2709      C2710   1.406       .  A
C2709      H2718   1.082       .  S
C2710      C2713   1.363       .  A
O2711      C2712   1.331       .  A
C2712      C2713   1.393       .  A
C2713      H2719   1.082       .  S
O2714      C2715   1.332       .  A
C2715      C2716   1.392       .  A
C2716      H2720   1.082       .  S
C2721      C2726   1.381       .  A
C2721      C2722   1.399       .  A
C2721      O2727   1.316       .  A
C2722      C2723   1.399       .  A
C2722      H2733   1.082       .  S
C2723      C2732   1.355       .  A
C2723      C2724   1.380       .  A
C2724      C2725   1.407       .  A
C2724      O2730   1.323       .  A
C2725      C2726   1.407       .  A
C2725      H2734   1.082       .  S
C2726      C2729   1.365       .  A
O2727      C2728   1.329       .  A
C2728      C2729   1.393       .  A
C2729      H2735   1.082       .  S
O2730      C2731   1.333       .  A
C2731      C2732   1.390       .  A
C2732      H2736   1.082       .  S
C2737      C2742   1.380       .  A
C2737      C2738   1.407       .  A
C2737      O2743   1.321       .  A
C2738      C2739   1.405       .  A
C2738      H2749   1.082       .  S
C2739      C2748   1.366       .  A
C2739      C2740   1.380       .  A
C2740      C2741   1.404       .  A
C2740      O2746   1.319       .  A
C2741      C2742   1.403       .  A
C2741      H2750   1.082       .  S
C2742      C2745   1.363       .  A
O2743      C2744   1.332       .  A
C2744      C2745   1.391       .  A
C2745      H2751   1.082       .  S
O2746      C2747   1.331       .  A
C2747      C2748   1.392       .  A
C2748      H2752   1.082       .  S
C2753      C2758   1.381       .  A
C2753      C2754   1.398       .  A
C2753      O2759   1.315       .  A
C2754      C2755   1.398       .  A
C2754      H2765   1.082       .  S
C2755      C2764   1.355       .  A
C2755      C2756   1.380       .  A
C2756      C2757   1.407       .  A
C2756      O2762   1.323       .  A
C2757      C2758   1.407       .  A
C2757      H2766   1.082       .  S
C2758      C2761   1.366       .  A
O2759      C2760   1.327       .  A
C2760      C2761   1.392       .  A
C2761      H2767   1.082       .  S
O2762      C2763   1.333       .  A
C2763      C2764   1.389       .  A
C2764      H2768   1.082       .  S
C2769      C2774   1.380       .  A
C2769      C2770   1.401       .  A
C2769      O2775   1.318       .  A
C2770      C2771   1.400       .  A
C2770      H2781   1.082       .  S
C2771      C2780   1.356       .  A
C2771      C2772   1.380       .  A
C2772      C2773   1.406       .  A
C2772      O2778   1.323       .  A
C2773      C2774   1.406       .  A
C2773      H2782   1.082       .  S
C2774      C2777   1.364       .  A
O2775      C2776   1.330       .  A
C2776      C2777   1.394       .  A
C2777      H2783   1.082       .  S
O2778      C2779   1.332       .  A
C2779      C2780   1.391       .  A
C2780      H2784   1.082       .  S
C2785      C2790   1.380       .  A
C2785      C2786   1.405       .  A
C2785      O2791   1.321       .  A
C2786      C2787   1.405       .  A
C2786      H2797   1.082       .  S
C2787      C2796   1.364       .  A
C2787      C2788   1.381       .  A
C2788      C2789   1.403       .  A
C2788      O2794   1.319       .  A
C2789      C2790   1.402       .  A
C2789      H2798   1.082       .  S
C2790      C2793   1.360       .  A
O2791      C2792   1.331       .  A
C2792      C2793   1.391       .  A
C2793      H2799   1.082       .  S
O2794      C2795   1.330       .  A
C2795      C2796   1.392       .  A
C2796      H2800   1.082       .  S
C2801      C2806   1.380       .  A
C2801      C2802   1.402       .  A
C2801      O2807   1.319       .  A
C2802      C2803   1.402       .  A
C2802      H2813   1.082       .  S
C2803      C2812   1.360       .  A
C2803      C2804   1.380       .  A
C2804      C2805   1.405       .  A
C2804      O2810   1.322       .  A
C2805      C2806   1.405       .  A
C2805      H2814   1.082       .  S
C2806      C2809   1.363       .  A
O2807      C2808   1.330       .  A
C2808      C2809   1.393       .  A
C2809      H2815   1.082       .  S
O2810      C2811   1.332       .  A
C2811      C2812   1.392       .  A
C2812      H2816   1.082       .  S
C2817      C2822   1.381       .  A
C2817      C2818   1.400       .  A
C2817      O2823   1.317       .  A
C2818      C2819   1.400       .  A
C2818      H2829   1.082       .  S
C2819      C2828   1.357       .  A
C2819      C2820   1.380       .  A
C2820      C2821   1.407       .  A
C2820      O2826   1.323       .  A
C2821      C2822   1.407       .  A
C2821      H2830   1.082       .  S
C2822      C2825   1.366       .  A
O2823      C2824   1.329       .  A
C2824      C2825   1.393       .  A
C2825      H2831   1.082       .  S
O2826      C2827   1.333       .  A
C2827      C2828   1.389       .  A
C2828      H2832   1.082       .  S
C2833      C2838   1.380       .  A
C2833      C2834   1.402       .  A
C2833      O2839   1.317       .  A
C2834      C2835   1.401       .  A
C2834      H2845   1.082       .  S
C2835      C2844   1.360       .  A
C2835      C2836   1.380       .  A
C2836      C2837   1.404       .  A
C2836      O2842   1.320       .  A
C2837      C2838   1.404       .  A
C2837      H2846   1.082       .  S
C2838      C2841   1.364       .  A
O2839      C2840   1.330       .  A
C2840      C2841   1.392       .  A
C2841      H2847   1.082       .  S
O2842      C2843   1.331       .  A
C2843      C2844   1.391       .  A
C2844      H2848   1.082       .  S
C2849      C2854   1.379       .  A
C2849      C2850   1.409       .  A
C2849      O2855   1.323       .  A
C2850      C2851   1.408       .  A
C2850      H2861   1.082       .  S
C2851      C2860   1.369       .  A
C2851      C2852   1.380       .  A
C2852      C2853   1.401       .  A
C2852      O2858   1.316       .  A
C2853      C2854   1.400       .  A
C2853      H2862   1.082       .  S
C2854      C2857   1.359       .  A
O2855      C2856   1.334       .  A
C2856      C2857   1.391       .  A
C2857      H2863   1.082       .  S
O2858      C2859   1.330       .  A
C2859      C2860   1.394       .  A
C2860      H2864   1.082       .  S
C2865      C2870   1.380       .  A
C2865      C2866   1.406       .  A
C2865      O2871   1.321       .  A
C2866      C2867   1.405       .  A
C2866      H2877   1.082       .  S
C2867      C2876   1.365       .  A
C2867      C2868   1.381       .  A
C2868      C2869   1.399       .  A
C2868      O2874   1.315       .  A
C2869      C2870   1.399       .  A
C2869      H2878   1.082       .  S
C2870      C2873   1.356       .  A
O2871      C2872   1.332       .  A
C2872      C2873   1.389       .  A
C2873      H2879   1.082       .  S
O2874      C2875   1.329       .  A
C2875      C2876   1.392       .  A
C2876      H2880   1.082       .  S
C2881      C2886   1.380       .  A
C2881      C2882   1.404       .  A
C2881      O2887   1.319       .  A
C2882      C2883   1.403       .  A
C2882      H2893   1.082       .  S
C2883      C2892   1.364       .  A
C2883      C2884   1.380       .  A
C2884      C2885   1.406       .  A
C2884      O2890   1.320       .  A
C2885      C2886   1.405       .  A
C2885      H2894   1.082       .  S
C2886      C2889   1.365       .  A
O2887      C2888   1.331       .  A
C2888      C2889   1.393       .  A
C2889      H2895   1.082       .  S
O2890      C2891   1.333       .  A
C2891      C2892   1.391       .  A
C2892      H2896   1.082       .  S
C2897      C2902   1.380       .  A
C2897      C2898   1.407       .  A
C2897      O2903   1.322       .  A
C2898      C2899   1.406       .  A
C2898      H2909   1.082       .  S
C2899      C2908   1.366       .  A
C2899      C2900   1.380       .  A
C2900      C2901   1.400       .  A
C2900      O2906   1.315       .  A
C2901      C2902   1.399       .  A
C2901      H2910   1.082       .  S
C2902      C2905   1.357       .  A
O2903      C2904   1.333       .  A
C2904      C2905   1.389       .  A
C2905      H2911   1.082       .  S
O2906      C2907   1.329       .  A
C2907      C2908   1.393       .  A
C2908      H2912   1.082       .  S
C2913      C2918   1.380       .  A
C2913      C2914   1.404       .  A
C2913      O2919   1.319       .  A
C2914      C2915   1.403       .  A
C2914      H2925   1.082       .  S
C2915      C2924   1.361       .  A
C2915      C2916   1.380       .  A
C2916      C2917   1.406       .  A
C2916      O2922   1.322       .  A
C2917      C2918   1.406       .  A
C2917      H2926   1.082       .  S
C2918      C2921   1.366       .  A
O2919      C2920   1.332       .  A
C2920      C2921   1.393       .  A
C2921      H2927   1.082       .  S
O2922      C2923   1.332       .  A
C2923      C2924   1.392       .  A
C2924      H2928   1.082       .  S
C2929      C2934   1.381       .  A
C2929      C2930   1.400       .  A
C2929      O2935   1.316       .  A
C2930      C2931   1.399       .  A
C2930      H2941   1.082       .  S
C2931      C2940   1.357       .  A
C2931      C2932   1.380       .  A
C2932      C2933   1.406       .  A
C2932      O2938   1.321       .  A
C2933      C2934   1.405       .  A
C2933      H2942   1.082       .  S
C2934      C2937   1.364       .  A
O2935      C2936   1.328       .  A
C2936      C2937   1.392       .  A
C2937      H2943   1.082       .  S
O2938      C2939   1.332       .  A
C2939      C2940   1.389       .  A
C2940      H2944   1.082       .  S
C2945      C2950   1.381       .  A
C2945      C2946   1.401       .  A
C2945      O2951   1.318       .  A
C2946      C2947   1.400       .  A
C2946      H2957   1.082       .  S
C2947      C2956   1.358       .  A
C2947      C2948   1.380       .  A
C2948      C2949   1.408       .  A
C2948      O2954   1.323       .  A
C2949      C2950   1.407       .  A
C2949      H2958   1.082       .  S
C2950      C2953   1.366       .  A
O2951      C2952   1.329       .  A
C2952      C2953   1.394       .  A
C2953      H2959   1.082       .  S
O2954      C2955   1.333       .  A
C2955      C2956   1.390       .  A
C2956      H2960   1.082       .  S
C2961      C2966   1.380       .  A
C2961      C2962   1.402       .  A
C2961      O2967   1.319       .  A
C2962      C2963   1.402       .  A
C2962      H2973   1.082       .  S
C2963      C2972   1.360       .  A
C2963      C2964   1.379       .  A
C2964      C2965   1.410       .  A
C2964      O2970   1.326       .  A
C2965      C2966   1.410       .  A
C2965      H2974   1.082       .  S
C2966      C2969   1.369       .  A
O2967      C2968   1.330       .  A
C2968      C2969   1.396       .  A
C2969      H2975   1.082       .  S
O2970      C2971   1.335       .  A
C2971      C2972   1.391       .  A
C2972      H2976   1.082       .  S
C2977      C2982   1.380       .  A
C2977      C2978   1.408       .  A
C2977      O2983   1.324       .  A
C2978      C2979   1.407       .  A
C2978      H2989   1.082       .  S
C2979      C2988   1.367       .  A
C2979      C2980   1.381       .  A
C2980      C2981   1.400       .  A
C2980      O2986   1.316       .  A
C2981      C2982   1.400       .  A
C2981      H2990   1.082       .  S
C2982      C2985   1.357       .  A
O2983      C2984   1.333       .  A
C2984      C2985   1.390       .  A
C2985      H2991   1.082       .  S
O2986      C2987   1.329       .  A
C2987      C2988   1.393       .  A
C2988      H2992   1.082       .  S
C2993      C2998   1.380       .  A
C2993      C2994   1.408       .  A
C2993      O2999   1.323       .  A
C2994      C2995   1.407       .  A
C2994      H3005   1.082       .  S
C2995      C3004   1.367       .  A
C2995      C2996   1.380       .  A
C2996      C2997   1.402       .  A
C2996      O3002   1.318       .  A
C2997      C2998   1.401       .  A
C2997      H3006   1.082       .  S
C2998      C3001   1.359       .  A
O2999      C3000   1.334       .  A
C3000      C3001   1.391       .  A
C3001      H3007   1.082       .  S
O3002      C3003   1.330       .  A
C3003      C3004   1.394       .  A
C3004      H3008   1.082       .  S
C3009      C3014   1.380       .  A
C3009      C3010   1.405       .  A
C3009      O3015   1.320       .  A
C3010      C3011   1.404       .  A
C3010      H3021   1.082       .  S
C3011      C3020   1.363       .  A
C3011      C3012   1.380       .  A
C3012      C3013   1.408       .  A
C3012      O3018   1.323       .  A
C3013      C3014   1.407       .  A
C3013      H3022   1.082       .  S
C3014      C3017   1.367       .  A
O3015      C3016   1.332       .  A
C3016      C3017   1.393       .  A
C3017      H3023   1.082       .  S
O3018      C3019   1.333       .  A
C3019      C3020   1.391       .  A
C3020      H3024   1.082       .  S
C3025      C3030   1.380       .  A
C3025      C3026   1.408       .  A
C3025      O3031   1.323       .  A
C3026      C3027   1.407       .  A
C3026      H3037   1.082       .  S
C3027      C3036   1.368       .  A
C3027      C3028   1.380       .  A
C3028      C3029   1.402       .  A
C3028      O3034   1.318       .  A
C3029      C3030   1.401       .  A
C3029      H3038   1.082       .  S
C3030      C3033   1.360       .  A
O3031      C3032   1.333       .  A
C3032      C3033   1.391       .  A
C3033      H3039   1.082       .  S
O3034      C3035   1.331       .  A
C3035      C3036   1.394       .  A
C3036      H3040   1.082       .  S
C3041      C3046   1.380       .  A
C3041      C3042   1.404       .  A
C3041      O3047   1.320       .  A
C3042      C3043   1.404       .  A
C3042      H3053   1.082       .  S
C3043      C3052   1.362       .  A
C3043      C3044   1.380       .  A
C3044      C3045   1.403       .  A
C3044      O3050   1.319       .  A
C3045      C3046   1.402       .  A
C3045      H3054   1.082       .  S
C3046      C3049   1.360       .  A
O3047      C3048   1.331       .  A
C3048      C3049   1.391       .  A
C3049      H3055   1.082       .  S
O3050      C3051   1.330       .  A
C3051      C3052   1.392       .  A
C3052      H3056   1.082       .  S
C3057      C3062   1.380       .  A
C3057      C3058   1.401       .  A
C3057      O3063   1.317       .  A
C3058      C3059   1.400       .  A
C3058      H3069   1.082       .  S
C3059      C3068   1.358       .  A
C3059      C3060   1.380       .  A
C3060      C3061   1.407       .  A
C3060      O3066   1.323       .  A
C3061      C3062   1.407       .  A
C3061      H3070   1.082       .  S
C3062      C3065   1.366       .  A
O3063      C3064   1.329       .  A
C3064      C3065   1.393       .  A
C3065      H3071   1.082       .  S
O3066      C3067   1.333       .  A
C3067      C3068   1.390       .  A
C3068      H3072   1.082       .  S
C3073      C3078   1.380       .  A
C3073      C3074   1.403       .  A
C3073      O3079   1.319       .  A
C3074      C3075   1.403       .  A
C3074      H3085   1.082       .  S
C3075      C3084   1.361       .  A
C3075      C3076   1.380       .  A
C3076      C3077   1.406       .  A
C3076      O3082   1.321       .  A
C3077      C3078   1.405       .  A
C3077      H3086   1.082       .  S
C3078      C3081   1.364       .  A
O3079      C3080   1.331       .  A
C3080      C3081   1.393       .  A
C3081      H3087   1.082       .  S
O3082      C3083   1.332       .  A
C3083      C3084   1.393       .  A
C3084      H3088   1.082       .  S
C3089      C3094   1.380       .  A
C3089      C3090   1.403       .  A
C3089      O3095   1.319       .  A
C3090      C3091   1.403       .  A
C3090      H3101   1.082       .  S
C3091      C3100   1.360       .  A
C3091      C3092   1.380       .  A
C3092      C3093   1.407       .  A
C3092      O3098   1.323       .  A
C3093      C3094   1.407       .  A
C3093      H3102   1.082       .  S
C3094      C3097   1.365       .  A
O3095      C3096   1.331       .  A
C3096      C3097   1.393       .  A
C3097      H3103   1.082       .  S
O3098      C3099   1.333       .  A
C3099      C3100   1.392       .  A
C3100      H3104   1.082       .  S
C3105      C3110   1.379       .  A
C3105      C3106   1.409       .  A
C3105      O3111   1.324       .  A
C3106      C3107   1.408       .  A
C3106      H3117   1.082       .  S
C3107      C3116   1.367       .  A
C3107      C3108   1.380       .  A
C3108      C3109   1.401       .  A
C3108      O3114   1.318       .  A
C3109      C3110   1.401       .  A
C3109      H3118   1.082       .  S
C3110      C3113   1.359       .  A
O3111      C3112   1.334       .  A
C3112      C3113   1.392       .  A
C3113      H3119   1.082       .  S
O3114      C3115   1.330       .  A
C3115      C3116   1.395       .  A
C3116      H3120   1.082       .  S
C3121      C3126   1.381       .  A
C3121      C3122   1.399       .  A
C3121      O3127   1.316       .  A
C3122      C3123   1.398       .  A
C3122      H3133   1.082       .  S
C3123      C3132   1.355       .  A
C3123      C3124   1.380       .  A
C3124      C3125   1.409       .  A
C3124      O3130   1.324       .  A
C3125      C3126   1.408       .  A
C3125      H3134   1.082       .  S
C3126      C3129   1.368       .  A
O3127      C3128   1.328       .  A
C3128      C3129   1.394       .  A
C3129      H3135   1.082       .  S
O3130      C3131   1.334       .  A
C3131      C3132   1.388       .  A
C3132      H3136   1.083       .  S
C3137      C3142   1.380       .  A
C3137      C3138   1.406       .  A
C3137      O3143   1.320       .  A
C3138      C3139   1.405       .  A
C3138      H3149   1.082       .  S
C3139      C3148   1.366       .  A
C3139      C3140   1.380       .  A
C3140      C3141   1.400       .  A
C3140      O3146   1.315       .  A
C3141      C3142   1.399       .  A
C3141      H3150   1.082       .  S
C3142      C3145   1.359       .  A
O3143      C3144   1.332       .  A
C3144      C3145   1.390       .  A
C3145      H3151   1.082       .  S
O3146      C3147   1.329       .  A
C3147      C3148   1.392       .  A
C3148      H3152   1.082       .  S
C3153      C3158   1.380       .  A
C3153      C3154   1.404       .  A
C3153      O3159   1.320       .  A
C3154      C3155   1.404       .  A
C3154      H3165   1.082       .  S
C3155      C3164   1.361       .  A
C3155      C3156   1.380       .  A
C3156      C3157   1.406       .  A
C3156      O3162   1.322       .  A
C3157      C3158   1.405       .  A
C3157      H3166   1.082       .  S
C3158      C3161   1.364       .  A
O3159      C3160   1.332       .  A
C3160      C3161   1.393       .  A
C3161      H3167   1.082       .  S
O3162      C3163   1.332       .  A
C3163      C3164   1.393       .  A
C3164      H3168   1.082       .  S
C3169      C3174   1.380       .  A
C3169      C3170   1.404       .  A
C3169      O3175   1.320       .  A
C3170      C3171   1.403       .  A
C3170      H3181   1.082       .  S
C3171      C3180   1.362       .  A
C3171      C3172   1.380       .  A
C3172      C3173   1.406       .  A
C3172      O3178   1.322       .  A
C3173      C3174   1.406       .  A
C3173      H3182   1.082       .  S
C3174      C3177   1.364       .  A
O3175      C3176   1.331       .  A
C3176      C3177   1.393       .  A
C3177      H3183   1.082       .  S
O3178      C3179   1.332       .  A
C3179      C3180   1.391       .  A
C3180      H3184   1.082       .  S
C3185      C3190   1.380       .  A
C3185      C3186   1.407       .  A
C3185      O3191   1.322       .  A
C3186      C3187   1.406       .  A
C3186      H3197   1.082       .  S
C3187      C3196   1.367       .  A
C3187      C3188   1.380       .  A
C3188      C3189   1.401       .  A
C3188      O3194   1.316       .  A
C3189      C3190   1.400       .  A
C3189      H3198   1.082       .  S
C3190      C3193   1.359       .  A
O3191      C3192   1.333       .  A
C3192      C3193   1.391       .  A
C3193      H3199   1.082       .  S
O3194      C3195   1.330       .  A
C3195      C3196   1.393       .  A
C3196      H3200   1.082       .  S
C3201      C3206   1.381       .  A
C3201      C3202   1.402       .  A
C3201      O3207   1.319       .  A
C3202      C3203   1.401       .  A
C3202      H3213   1.082       .  S
C3203      C3212   1.359       .  A
C3203      C3204   1.380       .  A
C3204      C3205   1.404       .  A
C3204      O3210   1.321       .  A
C3205      C3206   1.404       .  A
C3205      H3214   1.082       .  S
C3206      C3209   1.362       .  A
O3207      C3208   1.330       .  A
C3208      C3209   1.392       .  A
C3209      H3215   1.082       .  S
O3210      C3211   1.332       .  A
C3211      C3212   1.390       .  A
C3212      H3216   1.082       .  S
C3217      C3222   1.380       .  A
C3217      C3218   1.400       .  A
C3217      O3223   1.316       .  A
C3218      C3219   1.399       .  A
C3218      H3229   1.082       .  S
C3219      C3228   1.359       .  A
C3219      C3220   1.380       .  A
C3220      C3221   1.407       .  A
C3220      O3226   1.322       .  A
C3221      C3222   1.406       .  A
C3221      H3230   1.082       .  S
C3222      C3225   1.367       .  A
O3223      C3224   1.329       .  A
C3224      C3225   1.394       .  A
C3225      H3231   1.082       .  S
O3226      C3227   1.333       .  A
C3227      C3228   1.390       .  A
C3228      H3232   1.082       .  S
C3233      C3238   1.381       .  A
C3233      C3234   1.404       .  A
C3233      O3239   1.319       .  A
C3234      C3235   1.403       .  A
C3234      H3245   1.082       .  S
C3235      C3244   1.362       .  A
C3235      C3236   1.380       .  A
C3236      C3237   1.402       .  A
C3236      O3242   1.318       .  A
C3237      C3238   1.402       .  A
C3237      H3246   1.082       .  S
C3238      C3241   1.360       .  A
O3239      C3240   1.330       .  A
C3240      C3241   1.390       .  A
C3241      H3247   1.082       .  S
O3242      C3243   1.330       .  A
C3243      C3244   1.391       .  A
C3244      H3248   1.082       .  S
C3249      C3254   1.380       .  A
C3249      C3250   1.406       .  A
C3249      O3255   1.322       .  A
C3250      C3251   1.406       .  A
C3250      H3261   1.082       .  S
C3251      C3260   1.365       .  A
C3251      C3252   1.381       .  A
C3252      C3253   1.400       .  A
C3252      O3258   1.316       .  A
C3253      C3254   1.400       .  A
C3253      H3262   1.082       .  S
C3254      C3257   1.358       .  A
O3255      C3256   1.332       .  A
C3256      C3257   1.389       .  A
C3257      H3263   1.082       .  S
O3258      C3259   1.329       .  A
C3259      C3260   1.392       .  A
C3260      H3264   1.082       .  S
C3265      C3270   1.380       .  A
C3265      C3266   1.407       .  A
C3265      O3271   1.322       .  A
C3266      C3267   1.406       .  A
C3266      H3277   1.082       .  S
C3267      C3276   1.366       .  A
C3267      C3268   1.380       .  A
C3268      C3269   1.401       .  A
C3268      O3274   1.316       .  A
C3269      C3270   1.400       .  A
C3269      H3278   1.082       .  S
C3270      C3273   1.358       .  A
O3271      C3272   1.333       .  A
C3272      C3273   1.390       .  A
C3273      H3279   1.082       .  S
O3274      C3275   1.330       .  A
C3275      C3276   1.393       .  A
C3276      H3280   1.082       .  S
C3281      C3286   1.380       .  A
C3281      C3282   1.402       .  A
C3281      O3287   1.318       .  A
C3282      C3283   1.402       .  A
C3282      H3293   1.082       .  S
C3283      C3292   1.359       .  A
C3283      C3284   1.380       .  A
C3284      C3285   1.406       .  A
C3284      O3290   1.322       .  A
C3285      C3286   1.405       .  A
C3285      H3294   1.082       .  S
C3286      C3289   1.364       .  A
O3287      C3288   1.330       .  A
C3288      C3289   1.393       .  A
C3289      H3295   1.082       .  S
O3290      C3291   1.332       .  A
C3291      C3292   1.392       .  A
C3292      H3296   1.082       .  S
C3297      C3302   1.380       .  A
C3297      C3298   1.403       .  A
C3297      O3303   1.319       .  A
C3298      C3299   1.403       .  A
C3298      H3309   1.082       .  S
C3299      C3308   1.361       .  A
C3299      C3300   1.380       .  A
C3300      C3301   1.404       .  A
C3300      O3306   1.320       .  A
C3301      C3302   1.404       .  A
C3301      H3310   1.082       .  S
C3302      C3305   1.363       .  A
O3303      C3304   1.331       .  A
C3304      C3305   1.392       .  A
C3305      H3311   1.082       .  S
O3306      C3307   1.331       .  A
C3307      C3308   1.391       .  A
C3308      H3312   1.082       .  S
C3313      C3318   1.380       .  A
C3313      C3314   1.408       .  A
C3313      O3319   1.323       .  A
C3314      C3315   1.407       .  A
C3314      H3325   1.082       .  S
C3315      C3324   1.367       .  A
C3315      C3316   1.380       .  A
C3316      C3317   1.401       .  A
C3316      O3322   1.317       .  A
C3317      C3318   1.400       .  A
C3317      H3326   1.082       .  S
C3318      C3321   1.359       .  A
O3319      C3320   1.334       .  A
C3320      C3321   1.391       .  A
C3321      H3327   1.082       .  S
O3322      C3323   1.330       .  A
C3323      C3324   1.394       .  A
C3324      H3328   1.082       .  S
C3329      C3334   1.380       .  A
C3329      C3330   1.403       .  A
C3329      O3335   1.319       .  A
C3330      C3331   1.403       .  A
C3330      H3341   1.082       .  S
C3331      C3340   1.361       .  A
C3331      C3332   1.379       .  A
C3332      C3333   1.409       .  A
C3332      O3338   1.324       .  A
C3333      C3334   1.409       .  A
C3333      H3342   1.082       .  S
C3334      C3337   1.368       .  A
O3335      C3336   1.331       .  A
C3336      C3337   1.395       .  A
C3337      H3343   1.082       .  S
O3338      C3339   1.334       .  A
C3339      C3340   1.392       .  A
C3340      H3344   1.082       .  S
C3345      C3350   1.380       .  A
C3345      C3346   1.403       .  A
C3345      O3351   1.318       .  A
C3346      C3347   1.402       .  A
C3346      H3357   1.082       .  S
C3347      C3356   1.361       .  A
C3347      C3348   1.380       .  A
C3348      C3349   1.405       .  A
C3348      O3354   1.320       .  A
C3349      C3350   1.404       .  A
C3349      H3358   1.082       .  S
C3350      C3353   1.364       .  A
O3351      C3352   1.330       .  A
C3352      C3353   1.391       .  A
C3353      H3359   1.082       .  S
O3354      C3355   1.331       .  A
C3355      C3356   1.390       .  A
C3356      H3360   1.082       .  S
C3361      C3366   1.380       .  A
C3361      C3362   1.406       .  A
C3361      O3367   1.321       .  A
C3362      C3363   1.405       .  A
C3362      H3373   1.082       .  S
C3363      C3372   1.366       .  A
C3363      C3364   1.381       .  A
C3364      C3365   1.400       .  A
C3364      O3370   1.315       .  A
C3365      C3366   1.399       .  A
C3365      H3374   1.082       .  S
C3366      C3369   1.358       .  A
O3367      C3368   1.332       .  A
C3368      C3369   1.390       .  A
C3369      H3375   1.082       .  S
O3370      C3371   1.329       .  A
C3371      C3372   1.392       .  A
C3372      H3376   1.082       .  S
C3377      C3382   1.380       .  A
C3377      C3378   1.406       .  A
C3377      O3383   1.321       .  A
C3378      C3379   1.405       .  A
C3378      H3389   1.082       .  S
C3379      C3388   1.366       .  A
C3379      C3380   1.380       .  A
C3380      C3381   1.404       .  A
C3380      O3386   1.318       .  A
C3381      C3382   1.403       .  A
C3381      H3390   1.082       .  S
C3382      C3385   1.362       .  A
O3383      C3384   1.332       .  A
C3384      C3385   1.392       .  A
C3385      H3391   1.082       .  S
O3386      C3387   1.331       .  A
C3387      C3388   1.393       .  A
C3388      H3392   1.082       .  S
C3393      C3398   1.380       .  A
C3393      C3394   1.406       .  A
C3393      O3399   1.322       .  A
C3394      C3395   1.406       .  A
C3394      H3405   1.082       .  S
C3395      C3404   1.365       .  A
C3395      C3396   1.380       .  A
C3396      C3397   1.402       .  A
C3396      O3402   1.318       .  A
C3397      C3398   1.401       .  A
C3397      H3406   1.082       .  S
C3398      C3401   1.359       .  A
O3399      C3400   1.331       .  A
C3400      C3401   1.389       .  A
C3401      H3407   1.082       .  S
O3402      C3403   1.330       .  A
C3403      C3404   1.393       .  A
C3404      H3408   1.082       .  S
C3409      C3414   1.380       .  A
C3409      C3410   1.407       .  A
C3409      O3415   1.321       .  A
C3410      C3411   1.406       .  A
C3410      H3421   1.082       .  S
C3411      C3420   1.366       .  A
C3411      C3412   1.380       .  A
C3412      C3413   1.403       .  A
C3412      O3418   1.318       .  A
C3413      C3414   1.402       .  A
C3413      H3422   1.082       .  S
C3414      C3417   1.361       .  A
O3415      C3416   1.333       .  A
C3416      C3417   1.391       .  A
C3417      H3423   1.082       .  S
O3418      C3419   1.331       .  A
C3419      C3420   1.393       .  A
C3420      H3424   1.082       .  S
C3425      C3430   1.381       .  A
C3425      C3426   1.404       .  A
C3425      O3431   1.319       .  A
C3426      C3427   1.403       .  A
C3426      H3437   1.082       .  S
C3427      C3436   1.363       .  A
C3427      C3428   1.380       .  A
C3428      C3429   1.403       .  A
C3428      O3434   1.318       .  A
C3429      C3430   1.402       .  A
C3429      H3438   1.082       .  S
C3430      C3433   1.361       .  A
O3431      C3432   1.330       .  A
C3432      C3433   1.391       .  A
C3433      H3439   1.082       .  S
O3434      C3435   1.331       .  A
C3435      C3436   1.391       .  A
C3436      H3440   1.082       .  S
C3441      C3446   1.381       .  A
C3441      C3442   1.399       .  A
C3441      O3447   1.315       .  A
C3442      C3443   1.398       .  A
C3442      H3453   1.082       .  S
C3443      C3452   1.357       .  A
C3443      C3444   1.380       .  A
C3444      C3445   1.406       .  A
C3444      O3450   1.321       .  A
C3445      C3446   1.405       .  A
C3445      H3454   1.082       .  S
C3446      C3449   1.366       .  A
O3447      C3448   1.328       .  A
C3448      C3449   1.392       .  A
C3449      H3455   1.082       .  S
O3450      C3451   1.332       .  A
C3451      C3452   1.389       .  A
C3452      H3456   1.082       .  S
