geometry optimzed in LAMMPS
_audit_creation_date              2020-11-30 
_audit_creation_method            'lammps2cif' 
_symmetry_space_group_name_H-M    'P1' 
_symmetry_Int_Tables_number       1 
_symmetry_cell_setting            triclinic 
loop_ 
_symmetry_equiv_pos_as_xyz 
  x,y,z 
_cell_length_a                    39.73930757 
_cell_length_b                    39.68948072497546 
_cell_length_c                    39.71505588770684 
_cell_angle_alpha                 90.17883754276484 
_cell_angle_beta                  90.07635120479756 
_cell_angle_gamma                 90.98314467568979 
loop_ 
_atom_site_label 
_atom_site_type_symbol 
_atom_site_fract_x 
_atom_site_fract_y 
_atom_site_fract_z 
_atom_site_charge 
O1          O  0.46854202  0.03445374  0.81323452    -0.83600
O2          O  0.43281165  0.04328336  0.75767650    -0.80600
C3          C  0.42583697  0.04246095  0.72682210     0.99900
O4          O  0.43583339  0.01929585  0.70805922    -0.80600
O5          O  0.50259887  0.03698226  0.70307227    -0.83300
C6          C  0.53339153  0.03917524  0.71059371     1.04400
O7          O  0.54591882  0.02301171  0.73475835    -0.76000
O8          O  0.51856488  0.04268181  0.79249113    -0.76200
C9          C  0.49262955  0.05466736  0.80574303     1.04400
O10         O  0.45778020  0.95736912  0.80195509    -0.83600
O11         O  0.41680267  0.97314371  0.75048374    -0.80600
C12         C  0.42412761  0.95276828  0.72719500     0.99900
O13         O  0.45356022  0.95136688  0.71575865    -0.80700
O14         O  0.51927760  0.96951492  0.70110751    -0.83300
C15         C  0.53897568  0.95367461  0.71953506     1.04400
O16         O  0.53622929  0.95407121  0.75094861    -0.76100
O17         O  0.51071494  0.96815893  0.81130006    -0.76200
C18         C  0.48674314  0.94664435  0.80876840     1.04400
Cr19       Cr  0.44700671  0.00149954  0.78016283     1.93700
Cr20       Cr  0.47805079  0.99429011  0.71040681     1.93200
Cr21       Cr  0.52457313  0.99719609  0.77214167     1.39100
O22         O  0.48338083  0.99791436  0.75426234    -1.21300
O23         O  0.46651110  0.88952165  0.80535633    -0.83600
O24         O  0.43632449  0.83624705  0.76659273    -0.80600
C25         C  0.44754849  0.83219396  0.73662514     0.99900
O26         O  0.47832228  0.82792962  0.73140261    -0.80600
O27         O  0.54429668  0.80975426  0.74116178    -0.83300
C28         C  0.56008452  0.83719199  0.73968256     1.04400
O29         O  0.55394180  0.86014382  0.76091328    -0.76000
O30         O  0.52114559  0.89622892  0.81342311    -0.76200
C31         C  0.49195571  0.90877350  0.81011626     1.04400
O32         O  0.47663302  0.84502609  0.86180433    -0.83600
O33         O  0.44628359  0.79126715  0.82268422    -0.80600
C34         C  0.44123057  0.77046591  0.79876996     0.99900
O35         O  0.45724699  0.77396050  0.77189171    -0.80700
O36         O  0.52300497  0.76632704  0.79207003    -0.83300
C37         C  0.55329139  0.77270639  0.79901632     1.04400
O38         O  0.56365218  0.80296722  0.80473022    -0.76100
O39         O  0.53154074  0.83954736  0.85731356    -0.76200
C40         C  0.50566308  0.84321327  0.87554254     1.04400
Cr41       Cr  0.46007306  0.83981074  0.81271679     1.93700
Cr42       Cr  0.50062305  0.79777452  0.76247342     1.93200
Cr43       Cr  0.53895251  0.84809470  0.80816444     1.39100
O44         O  0.49989454  0.82900589  0.79501799    -1.21300
O45         O  0.52916967  0.84368614  0.00280440    -0.83600
O46         O  0.56644597  0.78802014  0.00755826    -0.80600
C47         C  0.57451794  0.75766838  0.00368005     0.99900
O48         O  0.56725331  0.74196396  0.97723891    -0.80600
O49         O  0.50190689  0.73019206  0.99489123    -0.83300
C50         C  0.47138454  0.73668260  0.99985932     1.04400
O51         O  0.45658789  0.76075841  0.98550310    -0.76000
O52         O  0.47974705  0.81980235  0.00788997    -0.76200
C53         C  0.50446933  0.83477447  0.02141205     1.04400
O54         O  0.53981602  0.83890748  0.92528861    -0.83600
O55         O  0.58275839  0.78850529  0.93691552    -0.80600
C56         C  0.57565578  0.76697606  0.91427206     0.99900
O57         O  0.54602961  0.75605620  0.91069298    -0.80700
O58         O  0.48243902  0.73274670  0.92858846    -0.83300
C59         C  0.46136617  0.75094966  0.91460520     1.04400
O60         O  0.46314321  0.78228282  0.91701468    -0.76100
O61         O  0.48611817  0.84250062  0.93441545    -0.76200
C62         C  0.51044818  0.84258967  0.91363207     1.04400
Cr63       Cr  0.55165364  0.81404028  0.96756277     1.93700
Cr64       Cr  0.52406278  0.74353476  0.95301770     1.93200
Cr65       Cr  0.47452246  0.80123603  0.96138121     1.39100
O66         O  0.51643913  0.78632854  0.96124479    -1.21300
O67         O  0.51880030  0.10894941  0.81414779    -0.83600
O68         O  0.54693632  0.14748076  0.76188892    -0.80600
C69         C  0.55130302  0.17101340  0.74090969     0.99900
O70         O  0.53491518  0.19741238  0.74325565    -0.80600
O71         O  0.46860508  0.17723605  0.73421174    -0.83300
C72         C  0.43816161  0.17018037  0.74001480     1.04400
O73         O  0.42876260  0.16220000  0.76996171    -0.76000
O74         O  0.46401624  0.10875094  0.80579778    -0.76200
C75         C  0.49125240  0.09274996  0.80995441     1.04400
O76         O  0.52710718  0.16551832  0.85880518    -0.83600
O77         O  0.55735040  0.20381307  0.80640185    -0.80600
C78         C  0.54657059  0.23355298  0.80201318     0.99900
O79         O  0.51588467  0.23853787  0.79645734    -0.80700
O80         O  0.44942638  0.22716242  0.77901500    -0.83300
C81         C  0.43282525  0.22720817  0.80561706     1.04400
O82         O  0.43795933  0.20496221  0.82794479    -0.76100
O83         O  0.47307124  0.15309546  0.86414604    -0.76200
C84         C  0.50212220  0.15849296  0.87745800     1.04400
Cr85       Cr  0.53364787  0.15784419  0.80952233     1.93700
Cr86       Cr  0.49229463  0.20660598  0.76655452     1.93200
Cr87       Cr  0.45460006  0.15825982  0.81542612     1.39100
O88         O  0.49341453  0.17386865  0.79760994    -1.21300
O89         O  0.53743208  0.16566767  0.92649830    -0.83600
O90         O  0.58093317  0.21743763  0.93998424    -0.80600
C91         C  0.57397615  0.23905377  0.91782777     0.99900
O92         O  0.54428871  0.24852161  0.91394733    -0.80600
O93         O  0.48015746  0.26805460  0.93035547    -0.83300
C94         C  0.45969120  0.24879237  0.91578406     1.04400
O95         O  0.46140528  0.21755857  0.91856729    -0.76000
O96         O  0.48425707  0.15826210  0.93689476    -0.76200
C97         C  0.50796298  0.15952802  0.91551072     1.04400
O98         O  0.52676187  0.15903498  0.00365749    -0.83600
O99         O  0.56520291  0.21675302  0.01022307    -0.80600
C100        C  0.57315729  0.24762106  0.00663328     0.99900
O101        O  0.56387584  0.26360706  0.98120916    -0.80700
O102        O  0.49789913  0.27203771  0.99729979    -0.83300
C103        C  0.46716502  0.26459301  0.00075945     1.04400
O104        O  0.45331821  0.23940209  0.98647705    -0.76100
O105        O  0.47744915  0.18154464  0.00945438    -0.76200
C106        C  0.50196228  0.16667506  0.02236286     1.04400
Cr107      Cr  0.54960106  0.19028314  0.96957476     1.93700
Cr108      Cr  0.52125747  0.25964659  0.95593348     1.93200
Cr109      Cr  0.47230196  0.19955506  0.96315676     1.39100
O110        O  0.51413506  0.21649350  0.96367699    -1.21300
O111        O  0.47673922  0.10701721  0.11527593    -0.83600
O112        O  0.44393992  0.13955387  0.16844561    -0.80600
C113        C  0.43915356  0.16046315  0.19211512     0.99900
O114        O  0.45551381  0.18765696  0.19338254    -0.80600
O115        O  0.52312434  0.17493990  0.20621405    -0.83300
C116        C  0.55367424  0.16806448  0.20127568     1.04400
O117        O  0.56367511  0.15962752  0.17200083    -0.76000
O118        O  0.52879648  0.10677750  0.13397692    -0.76200
C119        C  0.50222558  0.09092332  0.12454363     1.04400
O120        O  0.47442765  0.16745734  0.07602551    -0.83600
O121        O  0.43600773  0.19741980  0.12740960    -0.80600
C122        C  0.44516053  0.22737852  0.13389116     0.99900
O123        O  0.47476595  0.23404238  0.14335288    -0.80700
O124        O  0.54050453  0.22637000  0.16280827    -0.83300
C125        C  0.56078516  0.22607380  0.13895275     1.04400
O126        O  0.55918195  0.20322269  0.11642768    -0.76100
O127        O  0.52736666  0.15183256  0.07606852    -0.76200
C128        C  0.50120143  0.16077001  0.06004244     1.04400
Cr129      Cr  0.46174938  0.15435337  0.12316782     1.93700
Cr130      Cr  0.49855128  0.20238979  0.17297437     1.93200
Cr131      Cr  0.54074108  0.15619862  0.12588790     1.39100
O132        O  0.50055845  0.17073912  0.14059309    -1.21300
O133        O  0.53176054  0.89117041  0.13429818    -0.83600
O134        O  0.56339664  0.83979866  0.17406550    -0.80600
C135        C  0.55175119  0.83078058  0.20270181     0.99900
O136        O  0.52164251  0.82064629  0.20578090    -0.80600
O137        O  0.45540493  0.80452327  0.19016786    -0.83300
C138        C  0.44044099  0.83190346  0.19174884     1.04400
O139        O  0.44619996  0.85466651  0.17000591    -0.76000
O140        O  0.47870611  0.89242618  0.11908706    -0.76200
C141        C  0.50563212  0.90790822  0.12697265     1.04400
O142        O  0.53102723  0.84527483  0.07621345    -0.83600
O143        O  0.56315596  0.79546333  0.11767230    -0.80600
C144        C  0.56438452  0.77240728  0.13988443     0.99900
O145        O  0.54246060  0.77081490  0.16229546    -0.80700
O146        O  0.47707136  0.76264412  0.13800717    -0.83300
C147        C  0.44734011  0.76906724  0.12940612     1.04400
O148        O  0.43834290  0.79912686  0.12454439    -0.76100
O149        O  0.47631966  0.83437111  0.07509441    -0.76200
C150        C  0.50397872  0.83937808  0.05957455     1.04400
Cr151      Cr  0.54318996  0.84188688  0.12658448     1.93700
Cr152      Cr  0.49943056  0.79323226  0.17048483     1.93200
Cr153      Cr  0.46388824  0.84355210  0.12347516     1.39100
O154        O  0.50244241  0.82646992  0.13985185    -1.21300
O155        O  0.52250298  0.03341452  0.12397361    -0.83600
O156        O  0.55194000  0.04866111  0.18267045    -0.80600
C157        C  0.55748188  0.04853808  0.21375058     0.99900
O158        O  0.54279196  0.02816971  0.23290369    -0.80600
O159        O  0.47631643  0.04521356  0.22770355    -0.83300
C160        C  0.44563288  0.04328423  0.21997578     1.04400
O161        O  0.43561731  0.02564611  0.19503012    -0.76000
O162        O  0.47055032  0.04136395  0.13827654    -0.76200
C163        C  0.49836518  0.05329337  0.12815038     1.04400
O164        O  0.53301576  0.95998687  0.14071875    -0.83600
O165        O  0.56464554  0.97971949  0.19519115    -0.80600
C166        C  0.55364225  0.95947370  0.21697045     0.99900
O167        O  0.52414159  0.96022010  0.22823399    -0.80700
O168        O  0.45834595  0.97730767  0.23470839    -0.83300
C169        C  0.44110959  0.95786297  0.21654759     1.04400
O170        O  0.44635179  0.95579022  0.18536809    -0.76100
O171        O  0.48008846  0.96430320  0.12689142    -0.76200
C172        C  0.50609921  0.94609630  0.13089852     1.04400
Cr173      Cr  0.53964411  0.00519909  0.16139060     1.93700
Cr174      Cr  0.50049730  0.00265401  0.22752495     1.93200
Cr175      Cr  0.46142445  0.99740450  0.16154433     1.39100
O176        O  0.50039443  0.00161078  0.18332613    -1.21300
O177        O  0.83002984  0.47743650  0.01050574    -0.83600
O178        O  0.77178382  0.44891484  0.99372617    -0.80600
C179        C  0.74923157  0.46041544  0.01286954     0.99900
O180        O  0.74061263  0.49078671  0.01240874    -0.80600
O181        O  0.73986400  0.55748389  0.99423581    -0.83300
C182        C  0.75825467  0.57131336  0.01596376     1.04400
O183        O  0.78921922  0.56492413  0.01766644    -0.76000
O184        O  0.84648475  0.53011288  0.00733670    -0.76200
C185        C  0.84169313  0.50351258  0.02471939     1.04400
O186        O  0.84375524  0.48890119  0.93577884    -0.83600
O187        O  0.78381601  0.46175004  0.92360206    -0.80600
C188        C  0.75258602  0.45745934  0.92442022     0.99900
O189        O  0.73491412  0.47277221  0.94516036    -0.80700
O190        O  0.74727860  0.53798807  0.92704159    -0.83300
C191        C  0.75873651  0.56764486  0.92716813     1.04400
O192        O  0.78136832  0.57757781  0.94741754    -0.76100
O193        O  0.83409195  0.54211339  0.93043953    -0.76200
C194        C  0.83969194  0.51406925  0.91665303     1.04400
Cr195      Cr  0.80700117  0.47240088  0.96637298     1.93700
Cr196      Cr  0.74410613  0.51471820  0.96981168     1.93200
Cr197      Cr  0.81235991  0.55041463  0.97541523     1.39100
O198        O  0.78808422  0.51246442  0.97112371    -1.21300
O199        O  0.84151884  0.48290911  0.86350700    -0.83600
O200        O  0.78832511  0.45076943  0.82437070    -0.80600
C201        C  0.76748379  0.44572820  0.80044177     0.99900
O202        O  0.77026308  0.46226240  0.77392318    -0.80600
O203        O  0.75875054  0.52813556  0.79360680    -0.83300
C204        C  0.76373269  0.55851735  0.80188345     1.04400
O205        O  0.79340893  0.56948874  0.80921198    -0.76000
O206        O  0.83258162  0.53740810  0.86108635    -0.76200
C207        C  0.83864769  0.51124678  0.87830861     1.04400
O208        O  0.88530726  0.47681811  0.80631656    -0.83600
O209        O  0.83410170  0.44354436  0.76884870    -0.80600
C210        C  0.83005229  0.45407006  0.73883954     0.99900
O211        O  0.82270071  0.48429271  0.73312306    -0.80700
O212        O  0.80171468  0.55012700  0.74337158    -0.83300
C213        C  0.82709638  0.56900912  0.74332183     1.04400
O214        O  0.85022665  0.56471870  0.76485812    -0.76100
O215        O  0.88905112  0.53159956  0.81564220    -0.76200
C216        C  0.90318739  0.50324128  0.81117351     1.04400
Cr217      Cr  0.83617540  0.46735389  0.81443131     1.93700
Cr218      Cr  0.79185056  0.50626567  0.76455147     1.93200
Cr219      Cr  0.83979239  0.54685829  0.81167312     1.39100
O220        O  0.82297747  0.50692717  0.79736102    -1.21300
O221        O  0.95263088  0.47407835  0.79458736    -0.83600
O222        O  0.97398788  0.44436141  0.73747359    -0.80600
C223        C  0.95840626  0.45626331  0.71248004     0.99900
O224        O  0.95919483  0.48724138  0.70589089    -0.80600
O225        O  0.97493518  0.55397614  0.71080789    -0.83300
C226        C  0.95288543  0.56537312  0.73004290     1.04400
O227        O  0.95177527  0.55826754  0.76072771    -0.76000
O228        O  0.96220122  0.52348827  0.81648253    -0.76200
C229        C  0.94124513  0.50024921  0.80814094     1.04400
O230        O  0.02730275  0.48307162  0.81482435    -0.83600
O231        O  0.04222139  0.45584007  0.75550596    -0.80600
C232        C  0.04380649  0.45370005  0.72405792     0.99900
O233        O  0.02721806  0.47235922  0.70526861    -0.80700
O234        O  0.04348437  0.53782455  0.71906057    -0.83300
C235        C  0.04124724  0.56775940  0.72879939     1.04400
O236        O  0.02104671  0.57561615  0.75202056    -0.76100
O237        O  0.03793919  0.53585934  0.80423786    -0.76200
C238        C  0.04871511  0.50719928  0.81189420     1.04400
Cr239      Cr  0.99861028  0.46743467  0.77552923     1.93700
Cr240      Cr  0.00112858  0.51272160  0.71349413     1.93200
Cr241      Cr  0.99381096  0.54524823  0.78268719     1.39100
O242        O  0.99761347  0.50827649  0.75722643    -1.21300
O243        O  0.85535517  0.52822057  0.07932089    -0.83600
O244        O  0.80655242  0.56067555  0.12085894    -0.80600
C245        C  0.78495932  0.56377998  0.14431471     0.99900
O246        O  0.78483194  0.54425168  0.16875812    -0.80600
O247        O  0.76889180  0.47940833  0.14625117    -0.83300
C248        C  0.77255249  0.44941347  0.13630030     1.04400
O249        O  0.80128656  0.43897383  0.12742457    -0.76000
O250        O  0.83879038  0.47502906  0.07772170    -0.76200
C251        C  0.84652102  0.50220384  0.06253699     1.04400
O252        O  0.90016703  0.52531465  0.13787633    -0.83600
O253        O  0.85211295  0.56090869  0.17586802    -0.80600
C254        C  0.84562336  0.54934416  0.20492719     0.99900
O255        O  0.83571345  0.51928667  0.20878101    -0.80700
O256        O  0.81183866  0.45530491  0.19430019    -0.83300
C257        C  0.83577770  0.43572619  0.19240635     1.04400
O258        O  0.85839679  0.43963641  0.17023480    -0.76100
O259        O  0.89766454  0.47251087  0.12089818    -0.76200
C260        C  0.91480744  0.49790780  0.13077613     1.04400
Cr261      Cr  0.85232040  0.53983842  0.12940878     1.93700
Cr262      Cr  0.80371834  0.49970633  0.17593031     1.93200
Cr263      Cr  0.84789994  0.46063201  0.12527973     1.39100
O264        O  0.83475442  0.50007670  0.14310896    -1.21300
O265        O  0.04574722  0.45527865  0.13576331    -0.83600
O266        O  0.03106975  0.41051004  0.18482031    -0.80600
C267        C  0.05346246  0.41657066  0.20685289     0.99900
O268        O  0.05739254  0.44560900  0.21889163    -0.80600
O269        O  0.04265087  0.50879767  0.24223781    -0.83300
C270        C  0.05915895  0.52841822  0.22393661     1.04400
O271        O  0.05742814  0.52640966  0.19266972    -0.76000
O272        O  0.03753057  0.50893721  0.13135460    -0.76200
C273        C  0.05768949  0.48452816  0.13041664     1.04400
O274        O  0.96899028  0.46886201  0.12971969    -0.83600
O275        O  0.96120195  0.42711018  0.18425018    -0.80600
C276        C  0.96464462  0.41737720  0.21436644     0.99900
O277        O  0.98982777  0.42607656  0.23146404    -0.80700
O278        O  0.97505494  0.49234918  0.24379532    -0.83300
C279        C  0.97323674  0.52356135  0.23817308     1.04400
O280        O  0.98945560  0.53788965  0.21459758    -0.76100
O281        O  0.96620082  0.51803128  0.15451449    -0.76200
C282        C  0.95211134  0.49481882  0.13781807     1.04400
Cr283      Cr  0.00225997  0.44333961  0.15939357     1.93700
Cr284      Cr  0.01596124  0.46855572  0.23075715     1.93200
Cr285      Cr  0.01227283  0.51973955  0.17363168     1.39100
O286        O  0.00909101  0.47741077  0.18789050    -1.21300
O287        O  0.10914318  0.51845997  0.12224756    -0.83600
O288        O  0.14468915  0.55442297  0.17393463    -0.80600
C289        C  0.16713983  0.56104667  0.19585100     0.99900
O290        O  0.19404145  0.54521913  0.19575005    -0.80600
O291        O  0.17641582  0.47852374  0.20757200    -0.83300
C292        C  0.17088224  0.44757558  0.20280650     1.04400
O293        O  0.16633684  0.43587812  0.17306922    -0.76000
O294        O  0.11411428  0.46455460  0.13395362    -0.76200
C295        C  0.09566020  0.48956774  0.12784178     1.04400
O296        O  0.16871578  0.52738074  0.07909104    -0.83600
O297        O  0.20221240  0.56332293  0.13073406    -0.80600
C298        C  0.23229091  0.55439638  0.13693592     0.99900
O299        O  0.23864198  0.52486662  0.14626087    -0.80700
O300        O  0.22978199  0.45857644  0.16693620    -0.83300
C301        C  0.23193509  0.44117532  0.14075979     1.04400
O302        O  0.21119361  0.44509450  0.11697497    -0.76100
O303        O  0.15963948  0.47258515  0.07711833    -0.76200
C304        C  0.16536285  0.50044208  0.06207104     1.04400
Cr305      Cr  0.15753567  0.53723431  0.12759329     1.93700
Cr306      Cr  0.20648026  0.50153326  0.17574626     1.93200
Cr307      Cr  0.16352940  0.45836959  0.12663944     1.39100
O308        O  0.17542098  0.49905297  0.14300576    -1.21300
O309        O  0.15124123  0.52263668  0.86416043    -0.83600
O310        O  0.20316571  0.55044859  0.82378478    -0.80600
C311        C  0.22400152  0.55397300  0.79991528     0.99900
O312        O  0.22025809  0.53777304  0.77334399    -0.80600
O313        O  0.22920603  0.47288907  0.79492395    -0.83300
C314        C  0.22318793  0.44309410  0.80408368     1.04400
O315        O  0.19316019  0.43289445  0.81039464    -0.76000
O316        O  0.15776204  0.46773393  0.86193736    -0.76200
C317        C  0.15512253  0.49468267  0.87915214     1.04400
O318        O  0.10524530  0.52862438  0.80794856    -0.83600
O319        O  0.15739994  0.55905046  0.76813416    -0.80600
C320        C  0.16188783  0.54790326  0.73823850     0.99900
O321        O  0.16729587  0.51709857  0.73306468    -0.80700
O322        O  0.18546904  0.45076179  0.74499505    -0.83300
C323        C  0.15858304  0.43421806  0.74413962     1.04400
O324        O  0.13598681  0.43958959  0.76604257    -0.76100
O325        O  0.09976043  0.47410957  0.81775717    -0.76200
C326        C  0.08660795  0.50288602  0.81349595     1.04400
Cr327      Cr  0.15490645  0.53641996  0.81455080     1.93700
Cr328      Cr  0.19709472  0.49469439  0.76509613     1.93200
Cr329      Cr  0.14810219  0.45723619  0.81292976     1.39100
O330        O  0.16610486  0.49609566  0.79784636    -1.21300
O331        O  0.16799722  0.46484780  0.92956363    -0.83600
O332        O  0.22257439  0.42824830  0.94044313    -0.80600
C333        C  0.24160236  0.43564162  0.91618270     0.99900
O334        O  0.24999081  0.46579336  0.91044585    -0.80600
O335        O  0.26670277  0.53340827  0.92378247    -0.83300
C336        C  0.24623158  0.55452914  0.91321950     1.04400
O337        O  0.21542868  0.55126574  0.91899474    -0.76000
O338        O  0.15976236  0.51862122  0.93684503    -0.76200
C339        C  0.16019950  0.49292123  0.91723436     1.04400
O340        O  0.16409114  0.47683821  0.00506807    -0.83600
O341        O  0.22536112  0.44643655  0.00938946    -0.80600
C342        C  0.25594099  0.44042210  0.00352459     0.99900
O343        O  0.27031236  0.45099692  0.97736932    -0.80700
O344        O  0.27736928  0.51791006  0.99032269    -0.83300
C345        C  0.26829309  0.54761890  0.99612341     1.04400
O346        O  0.24024072  0.55874833  0.98599949    -0.76100
O347        O  0.18471862  0.52738474  0.01125402    -0.76200
C348        C  0.17103768  0.50160254  0.02417093     1.04400
Cr349      Cr  0.19590114  0.45759776  0.97051552     1.93700
Cr350      Cr  0.26246397  0.49207560  0.95084812     1.93200
Cr351      Cr  0.20039125  0.53562155  0.96366529     1.39100
O352        O  0.21968638  0.49551938  0.96204718    -1.21300
O353        O  0.03450950  0.83802947  0.44324197    -0.83600
O354        O  0.03772866  0.77803719  0.41301885    -0.80600
C355        C  0.03318403  0.74710117  0.40758589     0.99900
O356        O  0.01121673  0.73056811  0.42330918    -0.80600
O357        O  0.03181962  0.73444487  0.48856392    -0.83300
C358        C  0.03635705  0.74620461  0.51768646     1.04400
O359        O  0.02065915  0.77120566  0.52906533    -0.76000
O360        O  0.03914685  0.82645673  0.49664588    -0.76200
C361        C  0.05286391  0.83509957  0.46937329     1.04400
O362        O  0.95705734  0.83120400  0.43582665    -0.83600
O363        O  0.96678169  0.77269224  0.40237500    -0.80600
C364        C  0.94703863  0.74986131  0.41348490     0.99900
O365        O  0.94491511  0.74423082  0.44450363    -0.80700
O366        O  0.96578655  0.73462477  0.51024807    -0.83300
C367        C  0.94991922  0.75456590  0.52841623     1.04400
O368        O  0.95096266  0.78567324  0.52273476    -0.76100
O369        O  0.96424383  0.84290957  0.48916136    -0.76200
C370        C  0.94502023  0.84060377  0.46363402     1.04400
Cr371      Cr  0.99840612  0.80468756  0.42714548     1.93700
Cr372      Cr  0.98855795  0.73950355  0.46657982     1.93200
Cr373      Cr  0.99385073  0.80588535  0.50584074     1.39100
O374        O  0.99388534  0.78361299  0.46666700    -1.21300
O375        O  0.84725514  0.89666301  0.48877882    -0.83600
O376        O  0.79535155  0.85761613  0.51998490    -0.80600
C377        C  0.77390457  0.83401907  0.52488949     0.99900
O378        O  0.77710134  0.80626972  0.51060697    -0.80600
O379        O  0.76324237  0.82409442  0.44612894    -0.83300
C380        C  0.76669396  0.83181217  0.41575121     1.04400
O381        O  0.79561921  0.83928869  0.40358302    -0.76000
O382        O  0.83304887  0.89358852  0.43526215    -0.76200
C383        C  0.84027060  0.91123954  0.46125468     1.04400
O384        O  0.89191476  0.83998646  0.49352380    -0.83600
O385        O  0.84055013  0.80246783  0.52859101    -0.80600
C386        C  0.83543831  0.77233236  0.51831886     0.99900
O387        O  0.82952479  0.76627480  0.48780328    -0.80700
O388        O  0.80646716  0.77454188  0.42275139    -0.83300
C389        C  0.83298677  0.77394753  0.40600384     1.04400
O390        O  0.85452198  0.79768717  0.40905451    -0.76100
O391        O  0.89112386  0.85076423  0.43900982    -0.76200
C392        C  0.90744741  0.84524894  0.46595663     1.04400
Cr393      Cr  0.84281227  0.84770906  0.50423916     1.93700
Cr394      Cr  0.79735932  0.79621891  0.46663044     1.93200
Cr395      Cr  0.84227951  0.84448908  0.42525995     1.39100
O396        O  0.82790511  0.82993134  0.46529962    -1.21300
O397        O  0.83160804  0.96267805  0.43127339    -0.83600
O398        O  0.78001038  0.97693539  0.39101991    -0.80600
C399        C  0.75934585  0.95326627  0.39707341     0.99900
O400        O  0.74844874  0.94827380  0.42635599    -0.80600
O401        O  0.72910915  0.96070166  0.49265800    -0.83300
C402        C  0.74773204  0.94743715  0.51414301     1.04400
O403        O  0.77912640  0.95028572  0.51189992    -0.76000
O404        O  0.83849105  0.96861758  0.48536275    -0.76200
C405        C  0.83767625  0.94947920  0.45944408     1.04400
O406        O  0.83843539  0.03848729  0.44661096    -0.83600
O407        O  0.78111096  0.04599670  0.41039383    -0.80600
C408        C  0.75078128  0.04186827  0.40157304     0.99900
O409        O  0.73381669  0.01666475  0.41124519    -0.80700
O410        O  0.72537518  0.02835192  0.47859376    -0.83300
C411        C  0.73265068  0.03045767  0.50942060     1.04400
O412        O  0.75879638  0.01753997  0.52187567    -0.76100
O413        O  0.81679916  0.04239892  0.49665458    -0.76200
C414        C  0.83077944  0.05650386  0.47186044     1.04400
Cr415      Cr  0.80692270  0.00538706  0.42316403     1.93700
Cr416      Cr  0.73774434  0.98871805  0.45242565     1.93200
Cr417      Cr  0.79818062  0.99519698  0.50057998     1.39100
O418        O  0.78090436  0.99696045  0.45909576    -1.21300
O419        O  0.10668446  0.84358211  0.49668553    -0.83600
O420        O  0.14465965  0.79191884  0.52685934    -0.80600
C421        C  0.16752352  0.77026906  0.53022717     0.99900
O422        O  0.19366743  0.77245020  0.51292584    -0.80600
O423        O  0.17496301  0.76439804  0.44662911    -0.83300
C424        C  0.16677418  0.77059954  0.41673416     1.04400
O425        O  0.16037677  0.80051844  0.40735090    -0.76000
O426        O  0.10771605  0.83541267  0.44181239    -0.76200
C427        C  0.09109915  0.83932679  0.46888077     1.04400
O428        O  0.16304246  0.88974258  0.50417682    -0.83600
O429        O  0.20131904  0.83678550  0.53631069    -0.80600
C430        C  0.23113340  0.83099085  0.52589169     0.99900
O431        O  0.23642849  0.82573789  0.49506769    -0.80700
O432        O  0.22623684  0.80924961  0.42775541    -0.83300
C433        C  0.22670556  0.83587669  0.41102134     1.04400
O434        O  0.20436085  0.85788814  0.41608574    -0.76100
O435        O  0.15187821  0.89335637  0.44989773    -0.76200
C436        C  0.15628289  0.90749599  0.47840797     1.04400
Cr437      Cr  0.15548755  0.83981931  0.51206821     1.93700
Cr438      Cr  0.20432336  0.79641506  0.47066437     1.93200
Cr439      Cr  0.15728114  0.84519924  0.43269760     1.39100
O440        O  0.17203536  0.82756787  0.47180548    -1.21300
O441        O  0.15933211  0.95915062  0.51028431    -0.83600
O442        O  0.20940047  0.97304637  0.55147624    -0.80600
C443        C  0.23096802  0.95169338  0.54266745     0.99900
O444        O  0.24455975  0.95220602  0.51417542    -0.80600
O445        O  0.26608877  0.97369374  0.45217710    -0.83300
C446        C  0.24931822  0.95552428  0.43252338     1.04400
O447        O  0.21799630  0.95352493  0.43499603    -0.76000
O448        O  0.15581584  0.96493857  0.45604985    -0.76200
C449        C  0.15626367  0.94572216  0.48155860     1.04400
O450        O  0.15202229  0.03616614  0.49895035    -0.83600
O451        O  0.20634639  0.04461395  0.53914278    -0.80600
C452        C  0.23641604  0.04201228  0.54890669     0.99900
O453        O  0.25393600  0.01814592  0.53882663    -0.80700
O454        O  0.26118560  0.03967690  0.47312685    -0.83300
C455        C  0.25573364  0.04135240  0.44189460     1.04400
O456        O  0.23273340  0.02418633  0.42723990    -0.76100
O457        O  0.17150211  0.03956100  0.44759963    -0.76200
C458        C  0.15889656  0.05353638  0.47288462     1.04400
Cr459      Cr  0.18247947  0.00307421  0.52195398     1.93700
Cr460      Cr  0.25305386  0.99600343  0.49427220     1.93200
Cr461      Cr  0.19459645  0.99587620  0.44466816     1.39100
O462        O  0.20972637  0.99907293  0.48675215    -1.21300
O463        O  0.88986196  0.16656800  0.50493579    -0.83600
O464        O  0.84024310  0.20270972  0.54127746    -0.80600
C465        C  0.83716547  0.23309308  0.53187936     0.99900
O466        O  0.83078136  0.23970040  0.50159983    -0.80600
O467        O  0.80968388  0.23238586  0.43515579    -0.83300
C468        C  0.83274470  0.22929202  0.41406789     1.04400
O469        O  0.85415909  0.20616154  0.41733332    -0.76000
O470        O  0.89019414  0.15370933  0.45079820    -0.76200
C471        C  0.90610201  0.15972989  0.47826451     1.04400
O472        O  0.84352912  0.10957181  0.49943254    -0.83600
O473        O  0.79350842  0.14769409  0.53098993    -0.80600
C474        C  0.77250069  0.17077717  0.53628844     0.99900
O475        O  0.77564201  0.19855568  0.52152943    -0.80700
O476        O  0.76219763  0.18478612  0.45437815    -0.83300
C477        C  0.76620786  0.17637268  0.42402622     1.04400
O478        O  0.79471795  0.16610155  0.41356624    -0.76100
O479        O  0.82945294  0.11162793  0.44601202    -0.76200
C480        C  0.83576088  0.09453159  0.47217404     1.04400
Cr481      Cr  0.84083228  0.15824919  0.51531424     1.93700
Cr482      Cr  0.79783797  0.21041239  0.47811197     1.93200
Cr483      Cr  0.84091672  0.16046961  0.43606248     1.39100
O484        O  0.82676816  0.17609727  0.47624589    -1.21300
O485        O  0.10620468  0.16472575  0.44129094    -0.83600
O486        O  0.15837728  0.19985525  0.40313813    -0.80600
C487        C  0.16712592  0.22947272  0.41294746     0.99900
O488        O  0.17581375  0.23455794  0.44292650    -0.80600
O489        O  0.19453246  0.22442052  0.50796588    -0.83300
C490        C  0.16809827  0.22569145  0.52492136     1.04400
O491        O  0.14501011  0.20356531  0.52152140    -0.76000
O492        O  0.10680064  0.14898307  0.49432039    -0.76200
C493        C  0.09041539  0.15593232  0.46787356     1.04400
O494        O  0.14816847  0.10610939  0.44510159    -0.83600
O495        O  0.19916309  0.14106096  0.40911371    -0.80600
C496        C  0.22281047  0.16226646  0.40398661     0.99900
O497        O  0.22453626  0.18884978  0.42104582    -0.80700
O498        O  0.23603319  0.17174825  0.48743277    -0.83300
C499        C  0.23143780  0.16803318  0.51848646     1.04400
O500        O  0.20201279  0.16207465  0.52990067    -0.76100
O501        O  0.16505274  0.10804654  0.49810941    -0.76200
C502        C  0.15602650  0.09119812  0.47235677     1.04400
Cr503      Cr  0.15404505  0.15440748  0.42818140     1.93700
Cr504      Cr  0.20448675  0.20167958  0.46496023     1.93200
Cr505      Cr  0.15612002  0.15662566  0.50712682     1.39100
O506        O  0.17129881  0.17053493  0.46667530    -1.21300
O507        O  0.96282291  0.15342355  0.45468108    -0.83600
O508        O  0.95564117  0.21104095  0.42133531    -0.80600
C509        C  0.95982803  0.24129598  0.41312849     0.99900
O510        O  0.98624472  0.25739826  0.42025350    -0.80600
O511        O  0.97154509  0.26626425  0.48602194    -0.83300
C512        C  0.96752765  0.25865785  0.51649589     1.04400
O513        O  0.98126326  0.23340307  0.53003825    -0.76000
O514        O  0.95859507  0.17543158  0.50440060    -0.76200
C515        C  0.94442654  0.16209124  0.47917187     1.04400
O516        O  0.03787658  0.16010738  0.43976031    -0.83600
O517        O  0.02513143  0.21258588  0.40140671    -0.80600
C518        C  0.04901829  0.23268518  0.40881535     0.99900
O519        O  0.05344337  0.24309635  0.43836928    -0.80700
O520        O  0.03829888  0.26390434  0.50304856    -0.83300
C521        C  0.05207666  0.24566026  0.52434952     1.04400
O522        O  0.04972910  0.21422067  0.52236122    -0.76100
O523        O  0.03399827  0.15521789  0.49429891    -0.76200
C524        C  0.05219911  0.15617342  0.46771066     1.04400
Cr525      Cr  0.99596298  0.18524317  0.43236642     1.93700
Cr526      Cr  0.01229825  0.25435372  0.46210707     1.93200
Cr527      Cr  0.00554202  0.19437393  0.50968958     1.39100
O528        O  0.00434609  0.21123741  0.46848941    -1.21300
O529        O  0.83682854  0.32302375  0.61854577    -0.83600
O530        O  0.89681670  0.32039920  0.58756283    -0.80600
C531        C  0.92077610  0.32961584  0.56931076     0.99900
O532        O  0.92947988  0.36036964  0.56649957    -0.80600
O533        O  0.88082667  0.38237761  0.52410657    -0.83300
C534        C  0.85124023  0.38697840  0.51396985     1.04400
O535        O  0.82827437  0.39611578  0.53417227    -0.76000
O536        O  0.81516236  0.34117188  0.57224092    -0.76200
C537        C  0.82478618  0.31689967  0.58980941     1.04400
O538        O  0.86305734  0.37846416  0.65775566    -0.83600
O539        O  0.92410699  0.37083115  0.63106089    -0.80600
C540        C  0.92770099  0.40233874  0.63235661     0.99900
O541        O  0.91827009  0.42022027  0.60823100    -0.80700
O542        O  0.87493475  0.44416914  0.56177047    -0.83300
C543        C  0.85267855  0.45637301  0.58075303     1.04400
O544        O  0.83151555  0.43755260  0.59534596    -0.76100
O545        O  0.81333002  0.38533710  0.63474460    -0.76200
C546        C  0.83414608  0.39025664  0.65886603     1.04400
Cr547      Cr  0.87928007  0.34989674  0.62183131     1.93700
Cr548      Cr  0.89900967  0.40038485  0.56680375     1.93200
Cr549      Cr  0.82441406  0.38914023  0.58473239     1.39100
O550        O  0.86743795  0.37997261  0.59088660    -1.21300
O551        O  0.69402661  0.86906329  0.60072749    -0.83600
O552        O  0.67724180  0.93131525  0.61520594    -0.80600
C553        C  0.67866440  0.93659079  0.58396063     0.99900
O554        O  0.65208233  0.93543863  0.56688134    -0.80600
O555        O  0.59955917  0.90240598  0.53799103    -0.83300
C556        C  0.61365413  0.87882906  0.52208228     1.04400
O557        O  0.62655009  0.85452670  0.53743471    -0.76000
O558        O  0.66394054  0.82471402  0.58535209    -0.76200
C559        C  0.69115358  0.84241419  0.58440585     1.04400
O560        O  0.65050273  0.84239012  0.65254941    -0.83600
O561        O  0.63053521  0.90451171  0.66374930    -0.80600
C562        C  0.61285194  0.92938777  0.65820675     0.99900
O563        O  0.61263505  0.94372793  0.62966885    -0.80700
O564        O  0.56288884  0.90497086  0.60031211    -0.83300
C565        C  0.54878154  0.87815772  0.58993893     1.04400
O566        O  0.56621339  0.85395187  0.57867479    -0.76100
O567        O  0.60207157  0.82902884  0.63089693    -0.76200
C568        C  0.62007245  0.83376133  0.65656229     1.04400
Cr569      Cr  0.66102954  0.88654438  0.63117378     1.93700
Cr570      Cr  0.60836360  0.91960348  0.58504072     1.93200
Cr571      Cr  0.61578716  0.84266921  0.58456641     1.39100
O572        O  0.62814319  0.88284803  0.60010713    -1.21300
O573        O  0.36433882  0.84588595  0.66143246    -0.83600
O574        O  0.34049023  0.90623056  0.64866567    -0.80600
C575        C  0.36957333  0.91870965  0.65199206     0.99900
O576        O  0.38984461  0.91902999  0.62771108    -0.80600
O577        O  0.42696406  0.89449436  0.57526408    -0.83300
C578        C  0.44488936  0.87090356  0.58679814     1.04400
O579        O  0.43145026  0.84364031  0.59644615    -0.76000
O580        O  0.38525940  0.80614900  0.62954511    -0.76200
C581        C  0.38442899  0.82259863  0.65728018     1.04400
O582        O  0.31866017  0.81510926  0.61380051    -0.83600
O583        O  0.29985865  0.87701766  0.59797209    -0.80600
C584        C  0.30190472  0.90638925  0.58763158     0.99900
O585        O  0.32984390  0.92239018  0.58539262    -0.80700
O586        O  0.36622627  0.89226695  0.53465687    -0.83300
C587        C  0.37891481  0.86778888  0.51914990     1.04400
O588        O  0.39237185  0.84372281  0.53494301    -0.76100
O589        O  0.34162861  0.80979563  0.56529370    -0.76200
C590        C  0.31526316  0.81029623  0.58262461     1.04400
Cr591      Cr  0.33292487  0.86090298  0.62833825     1.93700
Cr592      Cr  0.37730179  0.90455415  0.58183506     1.93200
Cr593      Cr  0.38589712  0.82763314  0.58281821     1.39100
O594        O  0.36568620  0.86448484  0.59741023    -1.21300
O595        O  0.82166988  0.66059515  0.65733446    -0.83600
O596        O  0.88316770  0.64003781  0.67070174    -0.80600
C597        C  0.90860841  0.62300256  0.66601308     0.99900
O598        O  0.92234629  0.62020183  0.63728443    -0.80600
O599        O  0.88330629  0.57159678  0.60572474    -0.83300
C600        C  0.85638681  0.55846585  0.59443634     1.04400
O601        O  0.83253960  0.57647053  0.58403419    -0.76000
O602        O  0.80844261  0.61180297  0.63699856    -0.76200
C603        C  0.81381832  0.63011017  0.66234077     1.04400
O604        O  0.85102913  0.70302645  0.60588417    -0.83600
O605        O  0.91238518  0.68571325  0.62411917    -0.80600
C606        C  0.92014419  0.68688570  0.59346732     0.99900
O607        O  0.91688576  0.66096942  0.57542140    -0.80700
O608        O  0.88295359  0.60930202  0.54475417    -0.83300
C609        C  0.85876433  0.62181797  0.52855584     1.04400
O610        O  0.83461479  0.63559123  0.54343050    -0.76100
O611        O  0.80600055  0.67370577  0.59160166    -0.76200
C612        C  0.82526753  0.69952316  0.58832101     1.04400
Cr613      Cr  0.86655555  0.67028420  0.63763115     1.93700
Cr614      Cr  0.89934792  0.61714694  0.59204654     1.93200
Cr615      Cr  0.82250843  0.62555782  0.59063439     1.39100
O616        O  0.86283938  0.63729138  0.60657255    -1.21300
O617        O  0.87306893  0.68375847  0.33969115    -0.83600
O618        O  0.93360223  0.65518435  0.33629212    -0.80600
C619        C  0.93464541  0.66127730  0.36736753     0.99900
O620        O  0.92678462  0.63835727  0.38786711    -0.80600
O621        O  0.88377137  0.59147291  0.41523922    -0.83300
C622        C  0.86125039  0.61038503  0.42661990     1.04400
O623        O  0.84117590  0.62487925  0.40716788    -0.76000
O624        O  0.82364666  0.66148849  0.35282897    -0.76200
C625        C  0.84449000  0.68647945  0.35251964     1.04400
O626        O  0.84711021  0.63874144  0.28983756    -0.83600
O627        O  0.90644967  0.60602856  0.29032778    -0.80600
C628        C  0.92965526  0.58840670  0.30174346     0.99900
O629        O  0.93948521  0.59164810  0.33189855    -0.80700
O630        O  0.89025170  0.55058305  0.35617838    -0.83300
C631        C  0.86017853  0.54076881  0.36004133     1.04400
O632        O  0.83740813  0.56117133  0.36902533    -0.76100
O633        O  0.82370252  0.59528357  0.31318104    -0.76200
C634        C  0.83401575  0.60987239  0.28714110     1.04400
Cr635      Cr  0.88930878  0.64425714  0.31581168     1.93700
Cr636      Cr  0.90833190  0.59462607  0.37139807     1.93200
Cr637      Cr  0.83388743  0.61139974  0.35961763     1.39100
O638        O  0.87689258  0.61674772  0.34922509    -1.21300
O639        O  0.30325225  0.63462359  0.82745747    -0.83600
O640        O  0.32018318  0.65131354  0.88971942    -0.80600
C641        C  0.31566578  0.62063571  0.89658927     0.99900
O642        O  0.34011450  0.60099860  0.89586496    -0.80600
O643        O  0.39186481  0.56700009  0.86681020    -0.83300
C644        C  0.37995320  0.55045238  0.84199553     1.04400
O645        O  0.36874706  0.56564188  0.81654546    -0.76000
O646        O  0.33304281  0.61448310  0.78545833    -0.76200
C647        C  0.30582502  0.61580615  0.80253722     1.04400
O648        O  0.35007408  0.68260831  0.80004850    -0.83600
O649        O  0.37106028  0.69479732  0.86234960    -0.80600
C650        C  0.38669052  0.68931767  0.88879745     0.99900
O651        O  0.38419358  0.66126991  0.90402251    -0.80700
O652        O  0.43206054  0.62823887  0.86891412    -0.83300
C653        C  0.44625965  0.61918998  0.84211538     1.04400
O654        O  0.42951897  0.60726388  0.81742415    -0.76100
O655        O  0.39725046  0.65884928  0.78970253    -0.76200
C656        C  0.38076678  0.68539582  0.79267318     1.04400
Cr657      Cr  0.33812116  0.66374694  0.84471573     1.93700
Cr658      Cr  0.38561089  0.61548078  0.88168041     1.93200
Cr659      Cr  0.38085291  0.61311518  0.80433507     1.39100
O660        O  0.36831216  0.63034154  0.84347867    -1.21300
O661        O  0.63517986  0.69662587  0.81867346    -0.83600
O662        O  0.65520646  0.68131345  0.88040840    -0.80600
C663        C  0.62574195  0.68707374  0.88987564     0.99900
O664        O  0.60366710  0.66390964  0.88934607    -0.80600
O665        O  0.56537178  0.61197088  0.86252254    -0.83300
C666        C  0.54904383  0.62388264  0.83802715     1.04400
O667        O  0.56385126  0.63442479  0.81200966    -0.76000
O668        O  0.61365771  0.66591627  0.77761106    -0.76200
C669        C  0.61568865  0.69350171  0.79426747     1.04400
O670        O  0.67858514  0.64726674  0.79014707    -0.83600
O671        O  0.69302118  0.62856965  0.85305380    -0.80600
C672        C  0.68876128  0.61794481  0.88214484     0.99900
O673        O  0.66039535  0.61855326  0.89678832    -0.80700
O674        O  0.62298547  0.56963369  0.86371997    -0.83300
C675        C  0.61079297  0.55493371  0.83810015     1.04400
O676        O  0.59900172  0.57149479  0.81361106    -0.76100
O677        O  0.65277254  0.59982532  0.78311027    -0.76200
C678        C  0.68008005  0.61611384  0.78469455     1.04400
Cr679      Cr  0.66338732  0.66151417  0.83532003     1.93700
Cr680      Cr  0.61412831  0.61718993  0.87578545     1.93200
Cr681      Cr  0.60902118  0.61912211  0.79846586     1.39100
O682        O  0.62845405  0.63240129  0.83656771    -1.21300
O683        O  0.63957720  0.82335813  0.29091235    -0.83600
O684        O  0.62432897  0.88635155  0.27503861    -0.80600
C685        C  0.61339476  0.91515831  0.27925260     0.99900
O686        O  0.61673400  0.93121568  0.30664744    -0.80600
O687        O  0.56521003  0.90162219  0.34212138    -0.83300
C688        C  0.54883156  0.87669635  0.35369342     1.04400
O689        O  0.56374371  0.85201071  0.36700910    -0.76000
O690        O  0.59177601  0.81864127  0.31583607    -0.76200
C691        C  0.60826261  0.81858683  0.28893439     1.04400
O692        O  0.68964071  0.85104113  0.33548809    -0.83600
O693        O  0.67814708  0.91286619  0.31393539    -0.80600
C694        C  0.68344302  0.92352836  0.34331490     0.99900
O695        O  0.66007321  0.92383244  0.36471025    -0.80700
O696        O  0.60595579  0.90054385  0.40173454    -0.83300
C697        C  0.61620166  0.87615112  0.41915057     1.04400
O698        O  0.62559243  0.84928215  0.40539081    -0.76100
O699        O  0.65651492  0.81216429  0.35780779    -0.76200
C700        C  0.68502025  0.82744847  0.35561635     1.04400
Cr701      Cr  0.65596210  0.86836522  0.30594399     1.93700
Cr702      Cr  0.61311284  0.91186857  0.35291719     1.93200
Cr703      Cr  0.61079791  0.83481354  0.35984473     1.39100
O704        O  0.62650537  0.87170130  0.33999348    -1.21300
O705        O  0.67861216  0.35622180  0.79354233    -0.83600
O706        O  0.69319435  0.37823547  0.85597552    -0.80600
C707        C  0.68791130  0.39370144  0.88273745     0.99900
O708        O  0.65960791  0.39235570  0.89775899    -0.80600
O709        O  0.62116407  0.43772736  0.86453215    -0.83300
C710        C  0.61143014  0.45166922  0.83783425     1.04400
O711        O  0.60245105  0.43451532  0.81229142    -0.76000
O712        O  0.65651718  0.40433138  0.78531863    -0.76200
C713        C  0.68259818  0.38710899  0.78767877     1.04400
O714        O  0.63213811  0.30910675  0.82323620    -0.83600
O715        O  0.65392230  0.32731533  0.88495355    -0.80600
C716        C  0.62436959  0.32093397  0.89395851     0.99900
O717        O  0.60250544  0.34334461  0.89194125    -0.80700
O718        O  0.56435787  0.39193054  0.86270080    -0.83300
C719        C  0.54882619  0.38091062  0.83690355     1.04400
O720        O  0.56440642  0.37231790  0.81073154    -0.76100
O721        O  0.61420115  0.33867489  0.78027868    -0.76200
C722        C  0.61343422  0.31189701  0.79812638     1.04400
Cr723      Cr  0.66233460  0.34453231  0.83906736     1.93700
Cr724      Cr  0.61306248  0.38997811  0.87696684     1.93200
Cr725      Cr  0.61106566  0.38633221  0.79922451     1.39100
O726        O  0.62840728  0.37403301  0.83849995    -1.21300
O727        O  0.69507444  0.16151276  0.33481224    -0.83600
O728        O  0.68031136  0.09872161  0.31870416    -0.80600
C729        C  0.68167291  0.08946292  0.34903641     0.99900
O730        O  0.65650078  0.09223923  0.36795024    -0.80600
O731        O  0.60401905  0.12275959  0.39941056    -0.83300
C732        C  0.61705294  0.14747065  0.41519759     1.04400
O733        O  0.62975274  0.17217157  0.39995489    -0.76000
O734        O  0.66464983  0.20351224  0.35216464    -0.76200
C735        C  0.69126522  0.18591729  0.35410205     1.04400
O736        O  0.64740472  0.18615569  0.28439312    -0.83600
O737        O  0.63054408  0.12277694  0.27294515    -0.80600
C738        C  0.61622349  0.09528898  0.27824473     0.99900
O739        O  0.61510579  0.08218876  0.30736527    -0.80700
O740        O  0.56561773  0.11874814  0.33843907    -0.83300
C741        C  0.55122134  0.14464377  0.34948039     1.04400
O742        O  0.56820463  0.16949879  0.36113177    -0.76100
O743        O  0.60028568  0.19714686  0.30838718    -0.76200
C744        C  0.61630023  0.19188947  0.28177032     1.04400
Cr745      Cr  0.66125936  0.14279385  0.30468346     1.93700
Cr746      Cr  0.61175378  0.10629856  0.35211904     1.93200
Cr747      Cr  0.61696409  0.18357132  0.35372690     1.39100
O748        O  0.62976138  0.14419377  0.33700002    -1.21300
O749        O  0.31159834  0.84039844  0.31810497    -0.83600
O750        O  0.30323396  0.90224351  0.34135876    -0.80600
C751        C  0.31036712  0.92753868  0.35867289     0.99900
O752        O  0.33920892  0.94164028  0.35723726    -0.80600
O753        O  0.36958139  0.90141548  0.40366937    -0.83300
C754        C  0.37937849  0.87403762  0.41609434     1.04400
O755        O  0.39043181  0.85064277  0.39745825    -0.76000
O756        O  0.33595986  0.82642376  0.36445322    -0.76200
C757        C  0.30919020  0.83170816  0.34852820     1.04400
O758        O  0.36127753  0.86763697  0.27179332    -0.83600
O759        O  0.34853696  0.92978098  0.29237173    -0.80600
C760        C  0.37956738  0.93555651  0.28892901     0.99900
O761        O  0.39884547  0.93344273  0.31394546    -0.80700
O762        O  0.43015893  0.89989097  0.36464831    -0.83300
C763        C  0.44540430  0.87629078  0.34995847     1.04400
O764        O  0.42917655  0.85253880  0.33583704    -0.76100
O765        O  0.37820228  0.82328159  0.29958997    -0.76200
C766        C  0.37802532  0.84137732  0.27299807     1.04400
Cr767      Cr  0.33318078  0.88464458  0.30775263     1.93700
Cr768      Cr  0.38316272  0.91708050  0.35828432     1.93200
Cr769      Cr  0.38195095  0.84033895  0.34820452     1.39100
O770        O  0.36640558  0.88059847  0.33817094    -1.21300
O771        O  0.16956507  0.68105518  0.61783676    -0.83600
O772        O  0.10707155  0.69010294  0.59392238    -0.80600
C773        C  0.08068020  0.68243048  0.57849458     0.99900
O774        O  0.06718667  0.65329610  0.57999930    -0.80600
O775        O  0.10390878  0.61985350  0.53297994    -0.83300
C776        C  0.13144903  0.61270556  0.51907837     1.04400
O777        O  0.15699209  0.60478911  0.53645726    -0.76000
O778        O  0.18068761  0.65947276  0.56963777    -0.76200
C779        C  0.17675418  0.68531740  0.58735806     1.04400
O780        O  0.14149774  0.63204374  0.66301688    -0.83600
O781        O  0.07926543  0.64828245  0.64390430    -0.80600
C782        C  0.07168718  0.61795080  0.64893973     0.99900
O783        O  0.07609889  0.59648109  0.62606993    -0.80700
O784        O  0.10804766  0.56226164  0.57602450    -0.83300
C785        C  0.13373761  0.54841922  0.58811680     1.04400
O786        O  0.15892166  0.56546571  0.59783060    -0.76100
O787        O  0.18571266  0.61618218  0.63411556    -0.76200
C788        C  0.16715396  0.61448004  0.66045439     1.04400
Cr789      Cr  0.12486086  0.66084176  0.62772931     1.93700
Cr790      Cr  0.09107593  0.60924448  0.58016157     1.93200
Cr791      Cr  0.16848825  0.61293614  0.58560157     1.39100
O792        O  0.12817317  0.62724893  0.59748207    -1.21300
O793        O  0.29847729  0.16379422  0.60898721    -0.83600
O794        O  0.31267449  0.10137080  0.62623082    -0.80600
C795        C  0.30852710  0.09146684  0.59633407     0.99900
O796        O  0.33216519  0.09417885  0.57531467    -0.80600
O797        O  0.38365840  0.12417282  0.53910864    -0.83300
C798        C  0.37255927  0.14935351  0.52326682     1.04400
O799        O  0.36203558  0.17478669  0.53892403    -0.76000
O800        O  0.32976020  0.20544955  0.59002928    -0.76200
C801        C  0.30300401  0.18724950  0.58866350     1.04400
O802        O  0.34802064  0.19047903  0.65552646    -0.83600
O803        O  0.36550256  0.12697335  0.66782365    -0.80600
C804        C  0.37811298  0.09909173  0.66204925     0.99900
O805        O  0.37782774  0.08597415  0.63281088    -0.80700
O806        O  0.42618300  0.12192012  0.59760421    -0.83300
C807        C  0.44067472  0.14828799  0.58667624     1.04400
O808        O  0.42395726  0.17290939  0.57596317    -0.76100
O809        O  0.39537508  0.19956162  0.63108588    -0.76200
C810        C  0.37924543  0.19567355  0.65805455     1.04400
Cr811      Cr  0.33326627  0.14612616  0.63750260     1.93700
Cr812      Cr  0.37866090  0.10891773  0.58739094     1.93200
Cr813      Cr  0.37642632  0.18624034  0.58569601     1.39100
O814        O  0.36292659  0.14700967  0.60313157    -1.21300
O815        O  0.85463934  0.35101840  0.26896261    -0.83600
O816        O  0.91477123  0.34036168  0.29429450    -0.80600
C817        C  0.92056448  0.37117695  0.28925560     0.99900
O818        O  0.91458481  0.39226425  0.31217835    -0.80600
O819        O  0.87716664  0.42484551  0.36035960    -0.83300
C820        C  0.85290671  0.43908058  0.34599010     1.04400
O821        O  0.83065966  0.42202045  0.33051826    -0.76000
O822        O  0.80802026  0.36920284  0.29218983    -0.76200
C823        C  0.82892987  0.36832877  0.26769600     1.04400
O824        O  0.82412068  0.30387015  0.31382434    -0.83600
O825        O  0.88410897  0.29751086  0.34270654    -0.80600
C826        C  0.90914667  0.30570161  0.35966108     0.99900
O827        O  0.92166424  0.33529326  0.35908737    -0.80700
O828        O  0.87796226  0.36682855  0.40164784    -0.83300
C829        C  0.84947034  0.37582483  0.41216076     1.04400
O830        O  0.82615448  0.38374754  0.39187839    -0.76100
O831        O  0.80580751  0.32819510  0.35824278    -0.76200
C832        C  0.81416948  0.30151102  0.34373332     1.04400
Cr833      Cr  0.86869486  0.32520409  0.30685067     1.93700
Cr834      Cr  0.89592832  0.37844414  0.35655482     1.93200
Cr835      Cr  0.81986940  0.37421142  0.34213724     1.39100
O836        O  0.86133498  0.35968698  0.33534937    -1.21300
O837        O  0.16546582  0.65172817  0.28343514    -0.83600
O838        O  0.10389282  0.62719838  0.27310489    -0.80600
C839        C  0.08017025  0.60774981  0.28025152     0.99900
O840        O  0.06554205  0.60886800  0.30859993    -0.80600
O841        O  0.10394860  0.56208641  0.33885791    -0.83300
C842        C  0.13131498  0.54913243  0.34739994     1.04400
O843        O  0.15613934  0.56732936  0.35715952    -0.76000
O844        O  0.17881410  0.60357323  0.30396110    -0.76200
C845        C  0.17373532  0.62160569  0.27859834     1.04400
O846        O  0.13795556  0.69407315  0.33504663    -0.83600
O847        O  0.07563633  0.67352811  0.31913130    -0.80600
C848        C  0.06869327  0.67563219  0.34990841     0.99900
O849        O  0.07360087  0.65113604  0.36912242    -0.80700
O850        O  0.10764963  0.60081017  0.40009121    -0.83300
C851        C  0.13261513  0.61416283  0.41525948     1.04400
O852        O  0.15668703  0.62731457  0.39895640    -0.76100
O853        O  0.18329242  0.66619129  0.34904838    -0.76200
C854        C  0.16490987  0.69227897  0.35104850     1.04400
Cr855      Cr  0.12113496  0.65970292  0.30466464     1.93700
Cr856      Cr  0.08975448  0.60733019  0.35297982     1.93200
Cr857      Cr  0.16657966  0.61719923  0.35086286     1.39100
O858        O  0.12590166  0.62785881  0.33653385    -1.21300
O859        O  0.16055250  0.34542953  0.65517316    -0.83600
O860        O  0.09902867  0.36764713  0.66578452    -0.80600
C861        C  0.07442613  0.38551379  0.65983346     0.99900
O862        O  0.06078145  0.38658116  0.63084451    -0.80600
O863        O  0.10091086  0.43309205  0.59990202    -0.83300
C864        C  0.12857960  0.44594391  0.59070946     1.04400
O865        O  0.15230143  0.42789500  0.58006446    -0.76000
O866        O  0.17402981  0.39392767  0.63463035    -0.76200
C867        C  0.16843532  0.37591543  0.66007196     1.04400
O868        O  0.13273638  0.30197266  0.60411002    -0.83600
O869        O  0.07063664  0.32147040  0.61957719    -0.80600
C870        C  0.06517516  0.31827341  0.58862247     0.99900
O871        O  0.06776894  0.34355314  0.56981064    -0.80700
O872        O  0.10306987  0.39393126  0.53864218    -0.83300
C873        C  0.12770893  0.38066765  0.52351122     1.04400
O874        O  0.15140215  0.36760006  0.53993462    -0.76100
O875        O  0.17852918  0.33081312  0.59098216    -0.76200
C876        C  0.16010366  0.30423810  0.58898716     1.04400
Cr877      Cr  0.11615676  0.33594839  0.63420205     1.93700
Cr878      Cr  0.08504348  0.38771956  0.58602283     1.93200
Cr879      Cr  0.16185615  0.37892907  0.58780416     1.39100
O880        O  0.12101170  0.36774772  0.60231680    -1.21300
O881        O  0.62367165  0.13338224  0.66005084    -0.83600
O882        O  0.62312275  0.07186005  0.63461571    -0.80600
C883        C  0.59136006  0.07108332  0.63521483     0.99900
O884        O  0.57461813  0.08080292  0.61047237    -0.80600
O885        O  0.55480635  0.12415075  0.56242559    -0.83300
C886        C  0.54341782  0.14709166  0.58108138     1.04400
O887        O  0.56316494  0.16642200  0.59723701    -0.76000
O888        O  0.61738403  0.18281016  0.63623594    -0.76200
C889        C  0.61330275  0.16280665  0.66102572     1.04400
O890        O  0.68004297  0.15356757  0.61877458    -0.83600
O891        O  0.67557669  0.09328443  0.58888381    -0.80600
C892        C  0.66406630  0.07001276  0.57088262     0.99900
O893        O  0.63296233  0.06272443  0.57043572    -0.80700
O894        O  0.61616611  0.11251126  0.52721267    -0.83300
C895        C  0.61210349  0.14197820  0.51673104     1.04400
O896        O  0.60420592  0.16582334  0.53648082    -0.76100
O897        O  0.66035324  0.17728288  0.57375785    -0.76200
C898        C  0.68511504  0.16737908  0.59065014     1.04400
Cr899      Cr  0.64880193  0.11395671  0.62359419     1.93700
Cr900      Cr  0.59623092  0.09684458  0.56936940     1.93200
Cr901      Cr  0.61207738  0.17069761  0.58662257     1.39100
O902        O  0.61888785  0.12741220  0.59318935    -1.21300
O903        O  0.34392425  0.31419561  0.80414829    -0.83600
O904        O  0.36742197  0.30224100  0.86562473    -0.80600
C905        C  0.38562108  0.30827069  0.89046154     0.99900
O906        O  0.38564657  0.33667046  0.90534877    -0.80600
O907        O  0.43250658  0.36898452  0.86721701    -0.83300
C908        C  0.44562814  0.37867640  0.84002545     1.04400
O909        O  0.42768260  0.38948561  0.81597755    -0.76000
O910        O  0.39218689  0.33599662  0.79150218    -0.76200
C911        C  0.37422902  0.31006605  0.79626667     1.04400
O912        O  0.30090114  0.36353986  0.83315374    -0.83600
O913        O  0.32155699  0.34679324  0.89498595    -0.80600
C914        C  0.31842596  0.37757344  0.90116730     0.99900
O915        O  0.34347716  0.39709182  0.89917274    -0.80700
O916        O  0.39392070  0.43009177  0.86612840    -0.83300
C917        C  0.38034726  0.44587139  0.84203148     1.04400
O918        O  0.36753393  0.42995174  0.81741899    -0.76100
O919        O  0.32943296  0.37997867  0.78852002    -0.76200
C920        C  0.30293733  0.38042702  0.80677116     1.04400
Cr921      Cr  0.33526679  0.33364477  0.84915101     1.93700
Cr922      Cr  0.38729692  0.38200387  0.88239056     1.93200
Cr923      Cr  0.37810498  0.38235629  0.80545116     1.39100
O924        O  0.36708264  0.36635297  0.84560710    -1.21300
O925        O  0.70459403  0.64410814  0.12220086    -0.83600
O926        O  0.68120346  0.65380546  0.06111818    -0.80600
C927        C  0.68543041  0.62288972  0.05577567     0.99900
O928        O  0.66184662  0.60210884  0.06156774    -0.80600
O929        O  0.61317045  0.56921938  0.09867370    -0.83300
C930        C  0.62791446  0.55512989  0.12302073     1.04400
O931        O  0.64210014  0.57273319  0.14573599    -0.76000
O932        O  0.68032036  0.62579380  0.16854436    -0.76200
C933        C  0.70549869  0.62703526  0.14836069     1.04400
O934        O  0.65904440  0.69175402  0.15010571    -0.83600
O935        O  0.63188819  0.69735534  0.08891867    -0.80600
C936        C  0.61703149  0.68948007  0.06244394     0.99900
O937        O  0.61612321  0.65922558  0.05179552    -0.80700
O938        O  0.57220915  0.62781297  0.09606278    -0.83300
C939        C  0.56106850  0.61927117  0.12465719     1.04400
O940        O  0.58077787  0.61088783  0.14828163    -0.76100
O941        O  0.61391058  0.66728136  0.16751092    -0.76200
C942        C  0.62893030  0.69415543  0.15918709     1.04400
Cr943      Cr  0.66710415  0.66959937  0.10636908     1.93700
Cr944      Cr  0.61744279  0.61602565  0.07907498     1.93200
Cr945      Cr  0.63038195  0.62077688  0.15535715     1.39100
O946        O  0.63821139  0.63501276  0.11373751    -1.21300
O947        O  0.35721537  0.68237890  0.12780834    -0.83600
O948        O  0.39189387  0.68193890  0.06947385    -0.80600
C949        C  0.41168091  0.67079521  0.04784606     0.99900
O950        O  0.41199096  0.63987840  0.04004161    -0.80600
O951        O  0.45044422  0.61862148  0.09185099    -0.83300
C952        C  0.45900273  0.61412365  0.12197034     1.04400
O953        O  0.43723862  0.60693373  0.14444004    -0.76000
O954        O  0.40141111  0.66355617  0.15282425    -0.76200
C955        C  0.38542037  0.68789697  0.14133348     1.04400
O956        O  0.31674673  0.62758139  0.10214861    -0.83600
O957        O  0.34656279  0.63221854  0.04188682    -0.80600
C958        C  0.34470695  0.60065225  0.03862806     0.99900
O959        O  0.36680816  0.58234927  0.05140212    -0.80700
O960        O  0.40973543  0.55902834  0.09917405    -0.83300
C961        C  0.39011411  0.54850117  0.12195052     1.04400
O962        O  0.37436464  0.56836804  0.14052495    -0.76100
O963        O  0.33679170  0.62243961  0.15350815    -0.76200
C964        C  0.31351171  0.61741902  0.13176260     1.04400
Cr965      Cr  0.35486062  0.65434050  0.08638037     1.93700
Cr966      Cr  0.40799707  0.60142136  0.07235105     1.93200
Cr967      Cr  0.38696414  0.61618215  0.14531419     1.39100
O968        O  0.38340298  0.62372639  0.10147940    -1.21300
O969        O  0.64292912  0.30704919  0.11814607    -0.83600
O970        O  0.64994773  0.32947535  0.05658684    -0.80600
C971        C  0.61876072  0.32461188  0.05224926     0.99900
O972        O  0.59852315  0.34788379  0.05896036    -0.80600
O973        O  0.56920090  0.39881460  0.09581473    -0.83300
C974        C  0.55548050  0.38357428  0.12011910     1.04400
O975        O  0.57295997  0.36929524  0.14206133    -0.76000
O976        O  0.62405693  0.33174207  0.16400255    -0.76200
C977        C  0.62531727  0.30636167  0.14398256     1.04400
O978        O  0.69170249  0.35414144  0.14393208    -0.83600
O979        O  0.69506847  0.38097376  0.08254319    -0.80600
C980        C  0.68563823  0.39634456  0.05708327     0.99900
O981        O  0.65591320  0.39328592  0.04598743    -0.80700
O982        O  0.62906429  0.43888916  0.09007753    -0.83300
C983        C  0.62285322  0.45100314  0.11888152     1.04400
O984        O  0.61357148  0.43188290  0.14309908    -0.76100
O985        O  0.66679959  0.39778486  0.16344453    -0.76200
C986        C  0.69344287  0.38397496  0.15454837     1.04400
Cr987      Cr  0.66795142  0.34494137  0.10102460     1.93700
Cr988      Cr  0.61451580  0.39311151  0.07476158     1.93200
Cr989      Cr  0.62071232  0.38159447  0.15089174     1.39100
O990        O  0.63411213  0.37330560  0.10917547    -1.21300
O991        O  0.18206889  0.31771774  0.32586801    -0.83600
O992        O  0.11878336  0.30082571  0.34407270    -0.80600
C993        C  0.08967906  0.30431065  0.35493950     0.99900
O994        O  0.07480282  0.33247413  0.35443914    -0.80600
O995        O  0.10512109  0.37148297  0.40359733    -0.83300
C996        C  0.13076092  0.38216438  0.41946680     1.04400
O997        O  0.15666460  0.39309346  0.40392350    -0.76000
O998        O  0.18745978  0.34099020  0.37429433    -0.76200
C999        C  0.18672420  0.31453985  0.35695438     1.04400
O1000       O  0.15336432  0.36196522  0.27732693    -0.83600
O1001       O  0.09180898  0.33820877  0.29159761    -0.80600
C1002       C  0.08172551  0.36721460  0.28534002     0.99900
O1003       O  0.08257374  0.38960956  0.30789090    -0.80700
O1004       O  0.10789073  0.42916749  0.35948269    -0.83300
C1005       C  0.13356596  0.44579323  0.34959450     1.04400
O1006       O  0.16033209  0.43126693  0.34187699    -0.76100
O1007       O  0.19367009  0.38347721  0.30913418    -0.76200
C1008       C  0.17699255  0.38263976  0.28149419     1.04400
Cr1009     Cr  0.13678101  0.33184579  0.31174712     1.93700
Cr1010     Cr  0.09504395  0.37972200  0.35523709     1.93200
Cr1011     Cr  0.17261182  0.38545370  0.35606170     1.39100
O1012       O  0.13471589  0.36606744  0.34140437    -1.21300
O1013       O  0.36560510  0.11960291  0.27669495    -0.83600
O1014       O  0.36110005  0.06006065  0.30779963    -0.80600
C1015       C  0.39251719  0.05949373  0.30403120     0.99900
O1016       O  0.41132449  0.06931048  0.32766926    -0.80600
O1017       O  0.43654296  0.11508855  0.37256787    -0.83300
C1018       C  0.44811692  0.13852734  0.35423610     1.04400
O1019       O  0.42862071  0.15756806  0.33835206    -0.76000
O1020       O  0.37550868  0.17035674  0.29747876    -0.76200
C1021       C  0.37794464  0.14861118  0.27373285     1.04400
O1022       O  0.31136865  0.14524957  0.31671502    -0.83600
O1023       O  0.31202864  0.08833426  0.35197795    -0.80600
C1024       C  0.32304125  0.06864902  0.37357808     0.99900
O1025       O  0.35285221  0.05801249  0.37222497    -0.80700
O1026       O  0.37636605  0.10826282  0.41206659    -0.83300
C1027       C  0.37975342  0.13866380  0.42074780     1.04400
O1028       O  0.38701218  0.16139471  0.39920959    -0.76100
O1029       O  0.33175940  0.17027880  0.36087899    -0.76200
C1030       C  0.30657698  0.15976201  0.34449957     1.04400
Cr1031     Cr  0.33946161  0.10416937  0.31506551     1.93700
Cr1032     Cr  0.39278525  0.08922982  0.36929458     1.93200
Cr1033     Cr  0.37978472  0.16240537  0.34834240     1.39100
O1034       O  0.37104417  0.11887819  0.34429764    -1.21300
O1035       O  0.31020721  0.36264771  0.10577235    -0.83600
O1036       O  0.33632320  0.36156270  0.04443602    -0.80600
C1037       C  0.33233924  0.39297161  0.04372238     0.99900
O1038       O  0.35553314  0.41261085  0.05353095    -0.80600
O1039       O  0.40345114  0.43744136  0.09665222    -0.83300
C1040       C  0.38576009  0.44775114  0.12071043     1.04400
O1041       O  0.37021122  0.42763695  0.13966492    -0.76000
O1042       O  0.33365391  0.37224239  0.15509313    -0.76200
C1043       C  0.30914117  0.37532379  0.13456873     1.04400
O1044       O  0.35446391  0.31032715  0.12766511    -0.83600
O1045       O  0.38518279  0.31431551  0.06746143    -0.80600
C1046       C  0.40277020  0.32697737  0.04453621     0.99900
O1047       O  0.40022337  0.35756445  0.03640726    -0.80700
O1048       O  0.44292981  0.37979184  0.08567854    -0.83300
C1049       C  0.45324558  0.38447979  0.11538138     1.04400
O1050       O  0.43299678  0.39097475  0.13924568    -0.76100
O1051       O  0.39855155  0.33349022  0.15085166    -0.76200
C1052       C  0.38317737  0.30758094  0.14066540     1.04400
Cr1053     Cr  0.34833185  0.33897817  0.08725958     1.93700
Cr1054     Cr  0.39888860  0.39529224  0.06975467     1.93200
Cr1055     Cr  0.38311947  0.38011576  0.14379417     1.39100
O1056       O  0.37690923  0.37162631  0.10051640    -1.21300
C1057       C  0.51933092  0.38307844  0.12260095    -0.11500
C1058       C  0.48894465  0.38356798  0.12147073    -0.13000
C1059       C  0.38431680  0.48304043  0.12637709    -0.11500
C1060       C  0.38599599  0.51318648  0.12653848    -0.13000
C1061       C  0.62750914  0.51829644  0.12472825    -0.11500
C1062       C  0.62557654  0.48753361  0.12359676    -0.13000
C1063       C  0.52503614  0.61778773  0.12978666    -0.11500
C1064       C  0.49454202  0.61608262  0.12965624    -0.13000
C1065       C  0.13027212  0.38200625  0.45616769    -0.11500
C1066       C  0.12913114  0.38131730  0.48683748    -0.13000
C1067       C  0.13293798  0.48220642  0.34801949    -0.11500
C1068       C  0.13333091  0.51276790  0.34733974    -0.13000
C1069       C  0.37611380  0.14673511  0.45625094    -0.11500
C1070       C  0.37348053  0.14924448  0.48667452    -0.13000
C1071       C  0.47697764  0.15016745  0.58550656    -0.11500
C1072       C  0.50740951  0.15048841  0.58379961    -0.13000
C1073       C  0.13347099  0.61321007  0.48251039    -0.11500
C1074       C  0.13364963  0.61379676  0.45186446    -0.13000
C1075       C  0.13263255  0.48196026  0.59107241    -0.11500
C1076       C  0.13417297  0.51232763  0.59028776    -0.13000
C1077       C  0.61627244  0.14807451  0.45113893    -0.11500
C1078       C  0.61479388  0.14748981  0.48134725    -0.13000
C1079       C  0.51476106  0.14509130  0.35021682    -0.11500
C1080       C  0.48426141  0.14330391  0.35169998    -0.13000
C1081       C  0.51242822  0.37908090  0.83697221    -0.11500
C1082       C  0.48190660  0.37856739  0.83721404    -0.13000
C1083       C  0.48187045  0.87616927  0.35053533    -0.11500
C1084       C  0.51239732  0.87644136  0.35199974    -0.13000
C1085       C  0.61002631  0.51853972  0.83689002    -0.11500
C1086       C  0.61027738  0.48801595  0.83668404    -0.13000
C1087       C  0.37987811  0.51355991  0.84248109    -0.11500
C1088       C  0.38006371  0.48274872  0.84243497    -0.13000
C1089       C  0.48240193  0.62191433  0.84004916    -0.11500
C1090       C  0.51279902  0.62373697  0.83919329    -0.13000
C1091       C  0.85242030  0.50543754  0.35428288    -0.11500
C1092       C  0.85055916  0.47532259  0.34901621    -0.13000
C1093       C  0.85829177  0.61899829  0.49250729    -0.11500
C1094       C  0.85871134  0.61528015  0.46235368    -0.13000
C1095       C  0.37890118  0.86793641  0.48272190    -0.11500
C1096       C  0.37899674  0.86987209  0.45225632    -0.13000
C1097       C  0.61575657  0.87853767  0.45537875    -0.11500
C1098       C  0.61459296  0.87932671  0.48580718    -0.13000
C1099       C  0.48144585  0.87448140  0.58824418    -0.11500
C1100       C  0.51211105  0.87586142  0.58945310    -0.13000
C1101       C  0.84454542  0.38263138  0.47840668    -0.11500
C1102       C  0.84436697  0.37891602  0.44808708    -0.13000
C1103       C  0.85345516  0.52235560  0.59112337    -0.11500
C1104       C  0.85202991  0.49226821  0.58621686    -0.13000
C1105       C  0.06304264  0.26239481  0.55411624    -0.11500
C1106       C  0.06333067  0.28559299  0.57359655    -0.13000
C1107       C  0.07400204  0.27523265  0.36780414    -0.11500
C1108       C  0.06438402  0.25138932  0.38318268    -0.13000
C1109       C  0.93621933  0.25844566  0.39420333    -0.11500
C1110       C  0.92357335  0.28017565  0.37860086    -0.13000
C1111       C  0.95031572  0.28175414  0.53677552    -0.11500
C1112       C  0.93809671  0.30432405  0.55196925    -0.13000
C1113       C  0.16644941  0.25241451  0.54907476    -0.11500
C1114       C  0.16784986  0.27630791  0.56783402    -0.13000
C1115       C  0.18133068  0.28208123  0.37349390    -0.11500
C1116       C  0.17272591  0.25711243  0.38941082    -0.13000
C1117       C  0.24864591  0.15789646  0.37839806    -0.11500
C1118       C  0.27346976  0.15940509  0.36035860    -0.13000
C1119       C  0.25810211  0.17824612  0.54131909    -0.11500
C1120       C  0.27913046  0.18794753  0.56144733    -0.13000
C1121       C  0.74437700  0.16699938  0.55940081    -0.11500
C1122       C  0.71855100  0.16812313  0.57580695    -0.13000
C1123       C  0.73902180  0.18305161  0.40029784    -0.11500
C1124       C  0.71677996  0.18953583  0.38018892    -0.13000
C1125       C  0.82194300  0.27209208  0.36420693    -0.13900
C1126       C  0.83085716  0.25141528  0.38497716    -0.13000
C1127       C  0.83491599  0.25997483  0.55649867    -0.11500
C1128       C  0.82892244  0.28425196  0.57406449    -0.13000
C1129       C  0.28054926  0.05598595  0.42134351    -0.11500
C1130       C  0.30162349  0.06063507  0.40058530    -0.13000
C1131       C  0.27647077  0.07813074  0.58564899    -0.11500
C1132       C  0.25281986  0.06507862  0.57142996    -0.13000
C1133       C  0.24696232  0.93245112  0.56684127    -0.11500
C1134       C  0.27142073  0.92122851  0.57918322    -0.13000
C1135       C  0.28583330  0.93803399  0.38192706    -0.11500
C1136       C  0.26634067  0.94296821  0.40415664    -0.13000
C1137       C  0.16918686  0.74367766  0.39244326    -0.11500
C1138       C  0.17202522  0.72010985  0.37329785    -0.13000
C1139       C  0.16633255  0.74278169  0.55433960    -0.11500
C1140       C  0.17216168  0.71784573  0.57111397    -0.13000
C1141       C  0.28295986  0.81548217  0.56577940    -0.11500
C1142       C  0.25853977  0.82431513  0.54943519    -0.13000
C1143       C  0.25316616  0.83867168  0.38552622    -0.11500
C1144       C  0.27738726  0.83456177  0.36698583    -0.13000
C1145       C  0.68689019  0.05327707  0.54982478    -0.11500
C1146       C  0.70849439  0.04384955  0.53146476    -0.13000
C1147       C  0.73422861  0.06414501  0.37908813    -0.11500
C1148       C  0.71217786  0.07662506  0.36279317    -0.13000
C1149       C  0.74106967  0.93871598  0.37005710    -0.11500
C1150       C  0.71666490  0.93199825  0.35363720    -0.13000
C1151       C  0.73164143  0.93724954  0.54476623    -0.11500
C1152       C  0.71022518  0.93738881  0.56629850    -0.13000
C1153       C  0.71281859  0.82156297  0.37764035    -0.11500
C1154       C  0.73783084  0.82678302  0.39433477    -0.13000
C1155       C  0.74522442  0.83655855  0.54694302    -0.11500
C1156       C  0.71978909  0.83477965  0.56374868    -0.13000
C1157       C  0.82156673  0.72433347  0.56255133    -0.11500
C1158       C  0.82862978  0.74596239  0.54226427    -0.13000
C1159       C  0.83713813  0.74518456  0.38376262    -0.11500
C1160       C  0.83747353  0.71865784  0.36827221    -0.13000
C1161       C  0.05853780  0.70676813  0.36403911    -0.11500
C1162       C  0.05026742  0.72960930  0.38178235    -0.13000
C1163       C  0.06641262  0.70730410  0.55867446    -0.11500
C1164       C  0.05534890  0.72745492  0.54005113    -0.13000
C1165       C  0.93467453  0.74026743  0.55767325    -0.11500
C1166       C  0.92836871  0.71835023  0.57769172    -0.13000
C1167       C  0.93797666  0.72280652  0.39158847    -0.11500
C1168       C  0.93761430  0.69530032  0.37888147    -0.13000
C1169       C  0.29228162  0.56978874  0.01172593    -0.11500
C1170       C  0.31607540  0.58534994  0.02271267    -0.13000
C1171       C  0.30065895  0.40622732  0.03423081    -0.11500
C1172       C  0.27593425  0.42019357  0.02466819    -0.13000
C1173       C  0.26216679  0.40968076  0.90400171    -0.11500
C1174       C  0.28599531  0.39174139  0.90314247    -0.13000
C1175       C  0.26035946  0.58544854  0.90130898    -0.11500
C1176       C  0.28255695  0.60631162  0.89943496    -0.13000
C1177       C  0.16681612  0.57122704  0.71053055    -0.11500
C1178       C  0.17193362  0.59062271  0.68738078    -0.13000
C1179       C  0.16276566  0.39200422  0.69269543    -0.11500
C1180       C  0.15643786  0.40900425  0.71751652    -0.13000
C1181       C  0.27473073  0.40166182  0.80004942    -0.11500
C1182       C  0.25060085  0.41974390  0.80260112    -0.13000
C1183       C  0.25226377  0.57686918  0.80056596    -0.11500
C1184       C  0.27718589  0.59426979  0.79679216    -0.13000
C1185       C  0.18125951  0.40675652  0.25469590    -0.11500
C1186       C  0.17577139  0.42509548  0.23096694    -0.13000
C1187       C  0.16960372  0.60540853  0.24578106    -0.11500
C1188       C  0.16457910  0.58718282  0.22142395    -0.13000
C1189       C  0.25936709  0.57902548  0.13748392    -0.11500
C1190       C  0.28349424  0.59799901  0.13882013    -0.13000
C1191       C  0.25769399  0.41590597  0.14000656    -0.11500
C1192       C  0.28052451  0.39606799  0.14146943    -0.13000
C1193       C  0.06681149  0.38990363  0.22597030    -0.11500
C1194       C  0.07312746  0.37571556  0.25170318    -0.13000
C1195       C  0.07332453  0.58187293  0.25709562    -0.11500
C1196       C  0.07136766  0.55785300  0.23928559    -0.13000
C1197       C  0.94441209  0.56429153  0.28026798    -0.11500
C1198       C  0.95576931  0.54427711  0.26105214    -0.13000
C1199       C  0.94135869  0.39603879  0.23158734    -0.11500
C1200       C  0.93074188  0.38249590  0.25655644    -0.13000
C1201       C  0.74526313  0.42510963  0.14109406    -0.11500
C1202       C  0.72319226  0.40496410  0.14885101    -0.13000
C1203       C  0.75947543  0.58941654  0.14576461    -0.11500
C1204       C  0.73538420  0.60702496  0.15167963    -0.13000
C1205       C  0.84356624  0.57223100  0.23304571    -0.11500
C1206       C  0.83764306  0.59077376  0.25647410    -0.13000
C1207       C  0.82718275  0.38947457  0.23865692    -0.11500
C1208       C  0.83425290  0.40848276  0.21592997    -0.13000
C1209       C  0.06184159  0.60733702  0.68171373    -0.11500
C1210       C  0.05485734  0.59295431  0.70730630    -0.13000
C1211       C  0.05885370  0.42637033  0.70801886    -0.11500
C1212       C  0.06402019  0.40611552  0.68657260    -0.13000
C1213       C  0.93850678  0.41806361  0.66275121    -0.11500
C1214       C  0.94525791  0.43393532  0.68761588    -0.13000
C1215       C  0.93153352  0.58881485  0.71580056    -0.11500
C1216       C  0.92109893  0.60618757  0.69413062    -0.13000
C1217       C  0.82890504  0.43038670  0.71122424    -0.11500
C1218       C  0.82706626  0.41119427  0.68751730    -0.13000
C1219       C  0.82698014  0.59580862  0.71838261    -0.11500
C1220       C  0.81983379  0.61395375  0.69474166    -0.13000
C1221       C  0.73590957  0.58155345  0.79718776    -0.11500
C1222       C  0.71152004  0.59816756  0.78940879    -0.13000
C1223       C  0.74007624  0.42091760  0.80060951    -0.11500
C1224       C  0.71511313  0.40401912  0.79330710    -0.13000
C1225       C  0.72914702  0.43740854  0.03070446    -0.11500
C1226       C  0.70903364  0.41793525  0.04157522    -0.13000
C1227       C  0.71779755  0.61087497  0.04596865    -0.11500
C1228       C  0.74188940  0.59550790  0.03650175    -0.13000
C1229       C  0.74043767  0.59128572  0.90944232    -0.11500
C1230       C  0.71716023  0.60564901  0.89827822    -0.13000
C1231       C  0.73609113  0.43254218  0.90514776    -0.11500
C1232       C  0.71483973  0.41339239  0.89545060    -0.13000
C1233       C  0.60020056  0.07990948  0.25045732    -0.11500
C1234       C  0.58263298  0.06872572  0.22873533    -0.13000
C1235       C  0.40669435  0.05420093  0.27136697    -0.11500
C1236       C  0.42196691  0.05238613  0.24528283    -0.13000
C1237       C  0.41284225  0.94269727  0.23272312    -0.11500
C1238       C  0.39399854  0.93924830  0.25615789    -0.13000
C1239       C  0.57674094  0.93980236  0.23326718    -0.11500
C1240       C  0.59575350  0.92888051  0.25285926    -0.13000
C1241       C  0.59116222  0.74749804  0.14267694    -0.11500
C1242       C  0.60962324  0.72462111  0.15157247    -0.13000
C1243       C  0.40282684  0.71960925  0.13692528    -0.11500
C1244       C  0.42214149  0.74270085  0.13112547    -0.13000
C1245       C  0.41649752  0.83523449  0.21900003    -0.11500
C1246       C  0.39842192  0.83450499  0.24368092    -0.13000
C1247       C  0.59055179  0.82152190  0.25685997    -0.11500
C1248       C  0.57394268  0.82766364  0.23178992    -0.13000
C1249       C  0.59721660  0.18435460  0.25086817    -0.11500
C1250       C  0.57823289  0.17504456  0.22817337    -0.13000
C1251       C  0.41451636  0.15525764  0.21842159    -0.11500
C1252       C  0.39645431  0.15509178  0.24305743    -0.13000
C1253       C  0.40112531  0.27642129  0.13862838    -0.11500
C1254       C  0.42045873  0.25352180  0.13470781    -0.13000
C1255       C  0.58629183  0.25236394  0.14043561    -0.11500
C1256       C  0.60439191  0.27651166  0.14685660    -0.13000
C1257       C  0.44631047  0.28731092  0.01759590    -0.11500
C1258       C  0.42645279  0.30644731  0.02865892    -0.13000
C1259       C  0.59314124  0.26685493  0.02996609    -0.11500
C1260       C  0.60629085  0.29208869  0.04133430    -0.13000
C1261       C  0.61449153  0.28714055  0.90137159    -0.11500
C1262       C  0.59985018  0.26090633  0.90587993    -0.13000
C1263       C  0.43067684  0.26376459  0.90298213    -0.11500
C1264       C  0.40836374  0.28303152  0.89929226    -0.13000
C1265       C  0.41391649  0.17771344  0.71323996    -0.11500
C1266       C  0.39730667  0.18794726  0.68939575    -0.13000
C1267       C  0.57572659  0.16979986  0.71436846    -0.11500
C1268       C  0.59434799  0.17116457  0.69040179    -0.13000
C1269       C  0.58945323  0.28477791  0.79310022    -0.11500
C1270       C  0.57002526  0.26138482  0.79768759    -0.13000
C1271       C  0.39040428  0.27767927  0.80142684    -0.11500
C1272       C  0.40757507  0.25323417  0.80766820    -0.13000
C1273       C  0.59141302  0.73906683  0.02850918    -0.11500
C1274       C  0.60295621  0.71619462  0.04393372    -0.13000
C1275       C  0.43378599  0.69375240  0.03198767    -0.11500
C1276       C  0.45192146  0.71405267  0.01913090    -0.13000
C1277       C  0.43193429  0.73468458  0.90294566    -0.11500
C1278       C  0.40945858  0.71480232  0.89916236    -0.13000
C1279       C  0.60158086  0.74649415  0.90150393    -0.11500
C1280       C  0.61621831  0.72077008  0.89681841    -0.13000
C1281       C  0.39868687  0.71781102  0.79517552    -0.11500
C1282       C  0.41665354  0.74271481  0.79982989    -0.13000
C1283       C  0.57655478  0.74566534  0.79437120    -0.11500
C1284       C  0.59397796  0.72151271  0.78907929    -0.13000
C1285       C  0.58561613  0.84003678  0.71362895    -0.11500
C1286       C  0.60378862  0.83618839  0.68927129    -0.13000
C1287       C  0.40775213  0.81857174  0.68451303    -0.11500
C1288       C  0.42507536  0.82546339  0.70877451    -0.13000
C1289       C  0.40592958  0.06690173  0.71136723    -0.11500
C1290       C  0.39214193  0.08208717  0.68969686    -0.13000
C1291       C  0.55571779  0.05484987  0.68771964    -0.11500
C1292       C  0.57385530  0.06183108  0.66478868    -0.13000
C1293       C  0.59047170  0.93847762  0.68405808    -0.11500
C1294       C  0.56817906  0.94180208  0.70380186    -0.13000
C1295       C  0.38113867  0.92930075  0.68421999    -0.11500
C1296       C  0.39792864  0.93739065  0.70803517    -0.13000
loop_ 
_geom_bond_atom_site_label_1 
_geom_bond_atom_site_label_2 
_geom_bond_distance 
_geom_bond_site_symmetry_2 
_ccdc_geom_bond_type 
O1          Cr19   2.029       .  S
O1            C9   1.274       .  A
O2          Cr19   1.976       .  S
O2            C3   1.256       .  A
C3            O4   1.252       .  A
C3         C1289   1.404       .  S
O4          Cr20   1.966   1_545  S
O5          Cr20   1.963   1_545  S
O5            C6   1.261       .  A
C6            O7   1.263       .  A
C6         C1291   1.409       .  S
O7          Cr21   1.989   1_545  S
O8          Cr21   1.994   1_545  S
O8            C9   1.258       .  A
C9           C75   1.522       .  S
O10         Cr19   2.009   1_565  S
O10          C18   1.263       .  A
O11         Cr19   2.010   1_565  S
O11          C12   1.264       .  A
C12          O13   1.257       .  A
C12        C1296   1.417       .  S
O13         Cr20   1.960       .  S
O14         Cr20   1.960       .  S
O14          C15   1.250       .  A
C15          O16   1.253       .  A
C15        C1294   1.406       .  S
O16         Cr21   1.968       .  S
O17         Cr21   2.010       .  S
O17          C18   1.272       .  A
C18          C31   1.522       .  S
Cr19         O22   1.783   1_545  S
Cr20         O22   1.759       .  S
Cr21         O22   1.784       .  S
O23         Cr41   2.008       .  S
O23          C31   1.270       .  A
O24         Cr41   2.063       .  S
O24          C25   1.282       .  A
C25          O26   1.255       .  A
C25        C1288   1.442       .  S
O26         Cr42   1.945       .  S
O27         Cr42   1.983       .  S
O27          C28   1.249       .  A
C28          O29   1.266       .  A
C28        C1285   1.453       .  S
O29         Cr43   2.026       .  S
O30         Cr43   2.059       .  S
O30          C31   1.277       .  A
O32         Cr41   2.065       .  S
O32          C40   1.279       .  A
O33         Cr41   2.034       .  S
O33          C34   1.270       .  A
C34          O35   1.250       .  A
C34        C1282   1.460       .  S
O35         Cr42   1.988       .  S
O36         Cr42   1.943       .  S
O36          C37   1.256       .  A
C37          O38   1.282       .  A
C37        C1283   1.440       .  S
O38         Cr43   2.061       .  S
O39         Cr43   2.004       .  S
O39          C40   1.269       .  A
C40          C62   1.525       .  S
Cr41         O44   1.791       .  S
Cr42         O44   1.789       .  S
Cr43         O44   1.792       .  S
O45         Cr63   2.042   1_554  S
O45          C53   1.275       .  A
O46         Cr63   1.991   1_554  S
O46          C47   1.261       .  A
C47          O48   1.250   1_554  A
C47        C1273   1.410       .  S
O48         Cr64   1.968       .  S
O49         Cr64   1.953       .  S
O49          C50   1.260       .  A
C50          O51   1.267       .  A
C50        C1276   1.405   1_556  S
O51         Cr65   1.995       .  S
O52         Cr65   1.996   1_554  S
O52          C53   1.258       .  A
C53         C150   1.526       .  S
O54         Cr63   2.010       .  S
O54          C62   1.266       .  A
O55         Cr63   2.019       .  S
O55          C56   1.267       .  A
C56          O57   1.255       .  A
C56        C1279   1.417       .  S
O57         Cr64   1.957       .  S
O58         Cr64   1.957       .  S
O58          C59   1.246       .  A
C59          O60   1.248       .  A
C59        C1277   1.404       .  S
O60         Cr65   1.963       .  S
O61         Cr65   2.007       .  S
O61          C62   1.272       .  A
Cr63         O66   1.782       .  S
Cr64         O66   1.760       .  S
Cr65         O66   1.777       .  S
O67         Cr85   2.028       .  S
O67          C75   1.271       .  A
O68         Cr85   2.008       .  S
O68          C69   1.263       .  A
C69          O70   1.246       .  A
C69        C1267   1.435       .  S
O70         Cr86   1.970       .  S
O71         Cr86   1.961       .  S
O71          C72   1.259       .  A
C72          O73   1.286       .  A
C72        C1265   1.469       .  S
O73         Cr87   2.084       .  S
O74         Cr87   2.042       .  S
O74          C75   1.275       .  A
O76         Cr85   1.998       .  S
O76          C84   1.267       .  A
O77         Cr85   2.043       .  S
O77          C78   1.275       .  A
C78          O79   1.258       .  A
C78        C1270   1.444       .  S
O79         Cr86   1.960       .  S
O80         Cr86   1.965       .  S
O80          C81   1.246       .  A
C81          O82   1.272       .  A
C81        C1272   1.455       .  S
O82         Cr87   2.039       .  S
O83         Cr87   2.081       .  S
O83          C84   1.283       .  A
C84          C97   1.529       .  S
Cr85         O88   1.794       .  S
Cr86         O88   1.795       .  S
Cr87         O88   1.799       .  S
O89        Cr107   2.021       .  S
O89          C97   1.269       .  A
O90        Cr107   2.015       .  S
O90          C91   1.265       .  A
C91          O92   1.254       .  A
C91        C1262   1.417       .  S
O92        Cr108   1.956       .  S
O93        Cr108   1.956       .  S
O93          C94   1.247       .  A
C94          O95   1.248       .  A
C94        C1263   1.402       .  S
O95        Cr109   1.962       .  S
O96        Cr109   2.004       .  S
O96          C97   1.270       .  A
O98        Cr107   2.042   1_554  S
O98         C106   1.275       .  A
O99        Cr107   2.015   1_554  S
O99         C100   1.269       .  A
C100        O101   1.253   1_554  A
C100       C1259   1.430       .  S
O101       Cr108   1.971       .  S
O102       Cr108   1.954       .  S
O102        C103   1.259   1_556  A
C103        O104   1.265   1_554  A
C103       C1257   1.404       .  S
O104       Cr109   1.990       .  S
O105       Cr109   1.986   1_554  S
O105        C106   1.257       .  A
C106        C128   1.516       .  S
Cr107       O110   1.782       .  S
Cr108       O110   1.759       .  S
Cr109       O110   1.783       .  S
O111       Cr129   2.004       .  S
O111        C119   1.262       .  A
O112       Cr129   2.019       .  S
O112        C113   1.269       .  A
C113        O114   1.251       .  A
C113       C1251   1.446       .  S
O114       Cr130   1.974       .  S
O115       Cr130   1.981       .  S
O115        C116   1.264       .  A
C116        O117   1.275       .  A
C116       C1250   1.468       .  S
O117       Cr131   2.048       .  S
O118       Cr131   2.037       .  S
O118        C119   1.275       .  A
C119        C163   1.506       .  S
O120       Cr129   2.007       .  S
O120        C128   1.271       .  A
O121       Cr129   2.014       .  S
O121        C122   1.263       .  A
C122        O123   1.258       .  A
C122       C1254   1.441       .  S
O123       Cr130   1.976       .  S
O124       Cr130   1.949       .  S
O124        C125   1.245       .  A
C125        O126   1.273       .  A
C125       C1255   1.443       .  S
O126       Cr131   2.030       .  S
O127       Cr131   2.054       .  S
O127        C128   1.275       .  A
Cr129       O132   1.800       .  S
Cr130       O132   1.798       .  S
Cr131       O132   1.804       .  S
O133       Cr151   2.038       .  S
O133        C141   1.276       .  A
O134       Cr151   2.051       .  S
O134        C135   1.278       .  A
C135        O136   1.262       .  A
C135       C1248   1.459       .  S
O136       Cr152   1.970       .  S
O137       Cr152   1.975       .  S
O137        C138   1.249       .  A
C138        O139   1.270       .  A
C138       C1245   1.449       .  S
O139       Cr153   2.028       .  S
O140       Cr153   2.026       .  S
O140        C141   1.263       .  A
C141        C172   1.523       .  S
O142       Cr151   2.063       .  S
O142        C150   1.279       .  A
O143       Cr151   2.049       .  S
O143        C144   1.275       .  A
C144        O145   1.247       .  A
C144       C1241   1.469       .  S
O145       Cr152   1.968       .  S
O146       Cr152   1.969       .  S
O146        C147   1.260       .  A
C147        O148   1.267       .  A
C147       C1244   1.438       .  S
O148       Cr153   2.020       .  S
O149       Cr153   2.018       .  S
O149        C150   1.274       .  A
Cr151       O154   1.801       .  S
Cr152       O154   1.800       .  S
Cr153       O154   1.807       .  S
O155       Cr173   1.990       .  S
O155        C163   1.263       .  A
O156       Cr173   1.972       .  S
O156        C157   1.254       .  A
C157        O158   1.250       .  A
C157       C1234   1.401       .  S
O158       Cr174   1.958       .  S
O159       Cr174   1.958       .  S
O159        C160   1.258       .  A
C160        O161   1.271       .  A
C160       C1236   1.427       .  S
O161       Cr175   2.027   1_545  S
O162       Cr175   2.005   1_545  S
O162        C163   1.262       .  A
O164       Cr173   1.984   1_565  S
O164        C172   1.256       .  A
O165       Cr173   1.962   1_565  S
O165        C166   1.256       .  A
C166        O167   1.256       .  A
C166       C1239   1.377       .  S
O167       Cr174   1.943   1_565  S
O168       Cr174   1.961   1_565  S
O168        C169   1.250       .  A
C169        O170   1.259       .  A
C169       C1237   1.421       .  S
O170       Cr175   1.990       .  S
O171       Cr175   2.048       .  S
O171        C172   1.281       .  A
Cr173       O176   1.791       .  S
Cr174       O176   1.756       .  S
Cr175       O176   1.778   1_565  S
O177       Cr195   1.984   1_554  S
O177        C185   1.258       .  A
O178       Cr195   1.993       .  S
O178        C179   1.266   1_556  A
C179        O180   1.259       .  A
C179       C1225   1.398       .  S
O180       Cr196   1.947   1_554  S
O181       Cr196   1.962       .  S
O181        C182   1.250   1_556  A
C182        O183   1.262       .  A
C182       C1228   1.424       .  S
O183       Cr197   2.002   1_554  S
O184       Cr197   2.033   1_554  S
O184        C185   1.275       .  A
C185        C251   1.515       .  S
O186       Cr195   2.004       .  S
O186        C194   1.269       .  A
O187       Cr195   1.973       .  S
O187        C188   1.250       .  A
C188        O189   1.247       .  A
C188       C1231   1.402       .  S
O189       Cr196   1.957       .  S
O190       Cr196   1.939       .  S
O190        C191   1.255       .  A
C191        O192   1.263       .  A
C191       C1229   1.390       .  S
O192       Cr197   1.991       .  S
O193       Cr197   2.014       .  S
O193        C194   1.262       .  A
C194        C207   1.527       .  S
Cr195       O198   1.780       .  S
Cr196       O198   1.752       .  S
Cr197       O198   1.782       .  S
O199       Cr217   2.052       .  S
O199        C207   1.274       .  A
O200       Cr217   2.041       .  S
O200        C201   1.273       .  A
C201        O202   1.247       .  A
C201       C1223   1.456       .  S
O202       Cr218   1.969       .  S
O203       Cr218   1.963       .  S
O203        C204   1.261       .  A
C204        O205   1.283       .  A
C204       C1221   1.459       .  S
O205       Cr219   2.067       .  S
O206       Cr219   2.019       .  S
O206        C207   1.271       .  A
O208       Cr217   2.009       .  S
O208        C216   1.271       .  A
O209       Cr217   2.040       .  S
O209        C210   1.275       .  A
C210        O211   1.261       .  A
C210       C1217   1.442       .  S
O211       Cr218   1.964       .  S
O212       Cr218   1.969       .  S
O212        C213   1.246       .  A
C213        O214   1.269       .  A
C213       C1219   1.456       .  S
O214       Cr219   2.033       .  S
O215       Cr219   2.065       .  S
O215        C216   1.279       .  A
C216        C229   1.524       .  S
Cr217       O220   1.799       .  S
Cr218       O220   1.795       .  S
Cr219       O220   1.800       .  S
O221       Cr239   2.000       .  S
O221        C229   1.260       .  A
O222       Cr239   2.009       .  S
O222        C223   1.266       .  A
C223        O224   1.258       .  A
C223       C1214   1.418       .  S
O224       Cr240   1.957   1_655  S
O225       Cr240   1.958   1_655  S
O225        C226   1.253       .  A
C226        O227   1.252       .  A
C226       C1215   1.391       .  S
O227       Cr241   1.961       .  S
O228       Cr241   2.025       .  S
O228        C229   1.275       .  A
O230       Cr239   2.021   1_455  S
O230        C238   1.276       .  A
O231       Cr239   1.969   1_455  S
O231        C232   1.253       .  A
C232        O233   1.248       .  A
C232       C1211   1.400       .  S
O233       Cr240   1.950       .  S
O234       Cr240   1.953       .  S
O234        C235   1.253       .  A
C235        O236   1.265       .  A
C235       C1210   1.417       .  S
O236       Cr241   2.019   1_455  S
O237       Cr241   1.992   1_455  S
O237        C238   1.260       .  A
C238        C326   1.520       .  S
Cr239       O242   1.780       .  S
Cr240       O242   1.752   1_455  S
Cr241       O242   1.788       .  S
O243       Cr261   2.045       .  S
O243        C251   1.271       .  A
O244       Cr261   2.039       .  S
O244        C245   1.274       .  A
C245        O246   1.244       .  A
C245       C1203   1.449       .  S
O246       Cr262   1.954       .  S
O247       Cr262   1.976       .  S
O247        C248   1.264       .  A
C248        O249   1.271       .  A
C248       C1201   1.452       .  S
O249       Cr263   2.031       .  S
O250       Cr263   2.009       .  S
O250        C251   1.271       .  A
O252       Cr261   2.024       .  S
O252        C260   1.273       .  A
O253       Cr261   2.024       .  S
O253        C254   1.269       .  A
C254        O255   1.260       .  A
C254       C1205   1.441       .  S
O255       Cr262   1.969       .  S
O256       Cr262   1.941       .  S
O256        C257   1.241       .  A
C257        O258   1.267       .  A
C257       C1208   1.432       .  S
O258       Cr263   2.019       .  S
O259       Cr263   2.033       .  S
O259        C260   1.268       .  A
C260        C282   1.515       .  S
Cr261       O264   1.801       .  S
Cr262       O264   1.796       .  S
Cr263       O264   1.802       .  S
O265       Cr283   2.018       .  S
O265        C273   1.265       .  A
O266       Cr283   2.021       .  S
O266        C267   1.267       .  A
C267        O268   1.254       .  A
C267       C1193   1.415       .  S
O268       Cr284   1.953       .  S
O269       Cr284   1.954       .  S
O269        C270   1.246       .  A
C270        O271   1.246       .  A
C270       C1196   1.395       .  S
O271       Cr285   1.960       .  S
O272       Cr285   2.006       .  S
O272        C273   1.268       .  A
C273        C295   1.522       .  S
O274       Cr283   2.052   1_655  S
O274        C282   1.279       .  A
O275       Cr283   2.006   1_655  S
O275        C276   1.266       .  A
C276        O277   1.252       .  A
C276       C1199   1.421       .  S
O277       Cr284   1.965   1_655  S
O278       Cr284   1.963   1_655  S
O278        C279   1.263       .  A
C279        O280   1.268       .  A
C279       C1198   1.414       .  S
O280       Cr285   2.002   1_655  S
O281       Cr285   1.981   1_655  S
O281        C282   1.257       .  A
Cr283       O286   1.778       .  S
Cr284       O286   1.761       .  S
Cr285       O286   1.777       .  S
O287       Cr305   2.061       .  S
O287        C295   1.278       .  A
O288       Cr305   2.030       .  S
O288        C289   1.269       .  A
C289        O290   1.249       .  A
C289       C1188   1.454       .  S
O290       Cr306   1.976       .  S
O291       Cr306   1.958       .  S
O291        C292   1.258       .  A
C292        O293   1.279       .  A
C292       C1186   1.448       .  S
O293       Cr307   2.055       .  S
O294       Cr307   2.005       .  S
O294        C295   1.268       .  A
O296       Cr305   2.016       .  S
O296        C304   1.268       .  A
O297       Cr305   2.043       .  S
O297        C298   1.276       .  A
C298        O299   1.260       .  A
C298       C1189   1.441       .  S
O299       Cr306   1.958       .  S
O300       Cr306   1.984       .  S
O300        C301   1.250       .  A
C301        O302   1.265       .  A
C301       C1191   1.446       .  S
O302       Cr307   2.012       .  S
O303       Cr307   2.054       .  S
O303        C304   1.276       .  A
C304        C348   1.523       .  S
Cr305       O308   1.794       .  S
Cr306       O308   1.793       .  S
Cr307       O308   1.794       .  S
O309       Cr327   2.051       .  S
O309        C317   1.272       .  A
O310       Cr327   2.021       .  S
O310        C311   1.266       .  A
C311        O312   1.241       .  A
C311       C1183   1.433       .  S
O312       Cr328   1.954       .  S
O313       Cr328   1.955       .  S
O313        C314   1.257       .  A
C314        O315   1.279       .  A
C314       C1182   1.443       .  S
O315       Cr329   2.052       .  S
O316       Cr329   2.024       .  S
O316        C317   1.274       .  A
C317        C339   1.528       .  S
O318       Cr327   2.009       .  S
O318        C326   1.271       .  A
O319       Cr327   2.055       .  S
O319        C320   1.280       .  A
C320        O321   1.261       .  A
C320       C1177   1.452       .  S
O321       Cr328   1.962       .  S
O322       Cr328   1.963       .  S
O322        C323   1.245       .  A
C323        O324   1.271       .  A
C323       C1180   1.455       .  S
O324       Cr329   2.042       .  S
O325       Cr329   2.054       .  S
O325        C326   1.276       .  A
Cr327       O330   1.794       .  S
Cr328       O330   1.794       .  S
Cr329       O330   1.794       .  S
O331       Cr349   1.992       .  S
O331        C339   1.262       .  A
O332       Cr349   1.986       .  S
O332        C333   1.258       .  A
C333        O334   1.258       .  A
C333       C1173   1.411       .  S
O334       Cr350   1.969       .  S
O335       Cr350   1.969       .  S
O335        C336   1.251       .  A
C336        O337   1.250       .  A
C336       C1175   1.423       .  S
O337       Cr351   1.972       .  S
O338       Cr351   2.037       .  S
O338        C339   1.282       .  A
O340       Cr349   2.024   1_554  S
O340        C348   1.266       .  A
O341       Cr349   1.992   1_554  S
O341        C342   1.264       .  A
C342        O343   1.256   1_554  A
C342       C1172   1.416       .  S
O343       Cr350   1.973       .  S
O344       Cr350   1.956       .  S
O344        C345   1.260       .  A
C345        O346   1.271       .  A
C345       C1169   1.426   1_556  S
O346       Cr351   2.019       .  S
O347       Cr351   2.017   1_554  S
O347        C348   1.261       .  A
Cr349       O352   1.796       .  S
Cr350       O352   1.765       .  S
Cr351       O352   1.780       .  S
O353       Cr371   2.036   1_455  S
O353        C361   1.274       .  A
O354       Cr371   1.983   1_455  S
O354        C355   1.256       .  A
C355        O356   1.252       .  A
C355       C1162   1.417       .  S
O356       Cr372   1.975   1_455  S
O357       Cr372   1.941   1_455  S
O357        C358   1.257       .  A
C358        O359   1.264       .  A
C358       C1164   1.391       .  S
O359       Cr373   1.984   1_455  S
O360       Cr373   1.998   1_455  S
O360        C361   1.259       .  A
C361        C427   1.526       .  S
O362       Cr371   1.996       .  S
O362        C370   1.262       .  A
O363       Cr371   2.023       .  S
O363        C364   1.269       .  A
C364        O365   1.255       .  A
C364       C1167   1.421       .  S
O365       Cr372   1.954       .  S
O366       Cr372   1.966       .  S
O366        C367   1.249       .  A
C367        O368   1.256       .  A
C367       C1165   1.426       .  S
O368       Cr373   1.989       .  S
O369       Cr373   2.011       .  S
O369        C370   1.271       .  A
C370        C392   1.510       .  S
Cr371       O374   1.789       .  S
Cr372       O374   1.760       .  S
Cr373       O374   1.787       .  S
O375       Cr393   2.044       .  S
O375        C383   1.271       .  A
O376       Cr393   2.032       .  S
O376        C377   1.271       .  A
C377        O378   1.246       .  A
C377       C1155   1.443       .  S
O378       Cr394   1.967       .  S
O379       Cr394   1.944       .  S
O379        C380   1.253       .  A
C380        O381   1.278       .  A
C380       C1154   1.438       .  S
O381       Cr395   2.050       .  S
O382       Cr395   2.027       .  S
O382        C383   1.275       .  A
C383        C405   1.525       .  S
O384       Cr393   2.026       .  S
O384        C392   1.274       .  A
O385       Cr393   2.043       .  S
O385        C386   1.275       .  A
C386        O387   1.256       .  A
C386       C1158   1.439       .  S
O387       Cr394   1.952       .  S
O388       Cr394   1.978       .  S
O388        C389   1.247       .  A
C389        O390   1.267       .  A
C389       C1159   1.453       .  S
O390       Cr395   2.031       .  S
O391       Cr395   2.027       .  S
O391        C392   1.272       .  A
Cr393       O396   1.794       .  S
Cr394       O396   1.792       .  S
Cr395       O396   1.785       .  S
O397       Cr415   2.000   1_565  S
O397        C405   1.262       .  A
O398       Cr415   1.999   1_565  S
O398        C399   1.261       .  A
C399        O400   1.257       .  A
C399       C1149   1.411       .  S
O400       Cr416   1.961       .  S
O401       Cr416   1.977       .  S
O401        C402   1.252       .  A
C402        O403   1.254       .  A
C402       C1151   1.431       .  S
O403       Cr417   1.978       .  S
O404       Cr417   2.025       .  S
O404        C405   1.277       .  A
O406       Cr415   2.023       .  S
O406        C414   1.270       .  A
O407       Cr415   1.992       .  S
O407        C408   1.263       .  A
C408        O409   1.258       .  A
C408       C1147   1.427       .  S
O409       Cr416   1.986   1_545  S
O410       Cr416   1.953   1_545  S
O410        C411   1.260       .  A
C411        O412   1.267       .  A
C411       C1146   1.410       .  S
O412       Cr417   1.999   1_545  S
O413       Cr417   2.009   1_545  S
O413        C414   1.259       .  A
C414        C480   1.519       .  S
Cr415       O418   1.792   1_545  S
Cr416       O418   1.760       .  S
Cr417       O418   1.786       .  S
O419       Cr437   2.041       .  S
O419        C427   1.275       .  A
O420       Cr437   2.031       .  S
O420        C421   1.268       .  A
C421        O422   1.248       .  A
C421       C1139   1.454       .  S
O422       Cr438   1.975       .  S
O423       Cr438   1.956       .  S
O423        C424   1.257       .  A
C424        O425   1.275       .  A
C424       C1137   1.442       .  S
O425       Cr439   2.042       .  S
O426       Cr439   2.034       .  S
O426        C427   1.273       .  A
O428       Cr437   2.024       .  S
O428        C436   1.275       .  A
O429       Cr437   2.065       .  S
O429        C430   1.280       .  A
C430        O431   1.260       .  A
C430       C1142   1.463       .  S
O431       Cr438   1.965       .  S
O432       Cr438   1.979       .  S
O432        C433   1.250       .  A
C433        O434   1.272       .  A
C433       C1143   1.464       .  S
O434       Cr439   2.040       .  S
O435       Cr439   2.043       .  S
O435        C436   1.273       .  A
C436        C449   1.522       .  S
Cr437       O440   1.799       .  S
Cr438       O440   1.798       .  S
Cr439       O440   1.807       .  S
O441       Cr459   2.010   1_565  S
O441        C449   1.263       .  A
O442       Cr459   1.997   1_565  S
O442        C443   1.265       .  A
C443        O444   1.255       .  A
C443       C1133   1.389       .  S
O444       Cr460   1.936       .  S
O445       Cr460   1.964       .  S
O445        C446   1.246       .  A
C446        O447   1.250       .  A
C446       C1136   1.409       .  S
O447       Cr461   1.972       .  S
O448       Cr461   2.007       .  S
O448        C449   1.270       .  A
O450       Cr459   2.021       .  S
O450        C458   1.273       .  A
O451       Cr459   2.005       .  S
O451        C452   1.262       .  A
C452        O453   1.250       .  A
C452       C1132   1.427       .  S
O453       Cr460   1.973   1_545  S
O454       Cr460   1.951   1_545  S
O454        C455   1.261       .  A
C455        O456   1.270       .  A
C455       C1129   1.401       .  S
O456       Cr461   1.997   1_545  S
O457       Cr461   1.979   1_545  S
O457        C458   1.255       .  A
C458        C502   1.501       .  S
Cr459       O462   1.778   1_545  S
Cr460       O462   1.753       .  S
Cr461       O462   1.779       .  S
O463       Cr481   2.014       .  S
O463        C471   1.272       .  A
O464       Cr481   2.042       .  S
O464        C465   1.271       .  A
C465        O466   1.258       .  A
C465       C1127   1.449       .  S
O466       Cr482   1.968       .  S
O467       Cr482   1.972       .  S
O467        C468   1.250       .  A
C468        O469   1.269       .  A
C468       C1126   1.456       .  S
O469       Cr483   2.024       .  S
O470       Cr483   2.065       .  S
O470        C471   1.280       .  A
C471        C515   1.525       .  S
O472       Cr481   2.035       .  S
O472        C480   1.270       .  A
O473       Cr481   2.019       .  S
O473        C474   1.267       .  A
C474        O475   1.255       .  A
C474       C1121   1.453       .  S
O475       Cr482   1.992       .  S
O476       Cr482   1.967       .  S
O476        C477   1.261       .  A
C477        O478   1.280       .  A
C477       C1123   1.461       .  S
O478       Cr483   2.057       .  S
O479       Cr483   2.024       .  S
O479        C480   1.270       .  A
Cr481       O484   1.800       .  S
Cr482       O484   1.799       .  S
Cr483       O484   1.804       .  S
O485       Cr503   2.020       .  S
O485        C493   1.275       .  A
O486       Cr503   2.067       .  S
O486        C487   1.280       .  A
C487        O488   1.254       .  A
C487       C1116   1.458       .  S
O488       Cr504   1.955       .  S
O489       Cr504   1.973       .  S
O489        C490   1.250       .  A
C490        O491   1.266       .  A
C490       C1113   1.430       .  S
O491       Cr505   2.004       .  S
O492       Cr505   2.042       .  S
O492        C493   1.269       .  A
C493        C524   1.519       .  S
O494       Cr503   2.043       .  S
O494        C502   1.276       .  A
O495       Cr503   2.025       .  S
O495        C496   1.268       .  A
C496        O497   1.253       .  A
C496       C1117   1.458       .  S
O497       Cr504   1.987       .  S
O498       Cr504   1.958       .  S
O498        C499   1.256       .  A
C499        O500   1.273       .  A
C499       C1119   1.446       .  S
O500       Cr505   2.042       .  S
O501       Cr505   1.998       .  S
O501        C502   1.268       .  A
Cr503       O506   1.787       .  S
Cr504       O506   1.794       .  S
Cr505       O506   1.802       .  S
O507       Cr525   2.017       .  S
O507        C515   1.268       .  A
O508       Cr525   1.966       .  S
O508        C509   1.254       .  A
C509        O510   1.251       .  A
C509       C1109   1.390       .  S
O510       Cr526   1.962   1_655  S
O511       Cr526   1.943   1_655  S
O511        C512   1.258       .  A
C512        O513   1.270       .  A
C512       C1111   1.405       .  S
O513       Cr527   2.007   1_655  S
O514       Cr527   2.010   1_655  S
O514        C515   1.259       .  A
O516       Cr525   1.978   1_455  S
O516        C524   1.258       .  A
O517       Cr525   2.001   1_455  S
O517        C518   1.263       .  A
C518        O519   1.254       .  A
C518       C1108   1.397       .  S
O519       Cr526   1.946       .  S
O520       Cr526   1.958       .  S
O520        C521   1.247       .  A
C521        O522   1.252       .  A
C521       C1105   1.419       .  S
O522       Cr527   1.976       .  S
O523       Cr527   2.031       .  S
O523        C524   1.281       .  A
Cr525       O528   1.792   1_655  S
Cr526       O528   1.754       .  S
Cr527       O528   1.771       .  S
O529       Cr547   1.984       .  S
O529        C537   1.258       .  A
O530       Cr547   1.931       .  S
O530        C531   1.248       .  A
C531        O532   1.268       .  A
C531       C1112   1.406       .  S
O532       Cr548   2.014       .  S
O533       Cr548   1.970       .  S
O533        C534   1.259       .  A
C534        O535   1.273       .  A
C534       C1101   1.446       .  S
O535       Cr549   2.033       .  S
O536       Cr549   1.994       .  S
O536        C537   1.256       .  A
C537       C1128   1.449       .  S
O538       Cr547   1.938       .  S
O538        C546   1.249       .  A
O539       Cr547   1.986       .  S
O539        C540   1.257       .  A
C540        O541   1.255       .  A
C540       C1213   1.420       .  S
O541       Cr548   1.970       .  S
O542       Cr548   2.008       .  S
O542        C543   1.265       .  A
C543        O544   1.258       .  A
C543       C1104   1.441       .  S
O544       Cr549   1.981       .  S
O545       Cr549   2.041       .  S
O545        C546   1.277       .  A
C546       C1218   1.438       .  S
Cr547       O550   1.784       .  S
Cr548       O550   1.766       .  S
Cr549       O550   1.771       .  S
O551       Cr569   1.922       .  S
O551        C559   1.242       .  A
O552       Cr569   1.986       .  S
O552        C553   1.260       .  A
C553        O554   1.255       .  A
C553       C1152   1.438       .  S
O554       Cr570   1.975       .  S
O555       Cr570   2.015       .  S
O555        C556   1.266       .  A
C556        O557   1.259       .  A
C556       C1098   1.441       .  S
O557       Cr571   1.977       .  S
O558       Cr571   2.054       .  S
O558        C559   1.280       .  A
C559       C1156   1.440       .  S
O560       Cr569   1.988       .  S
O560        C568   1.262       .  A
O561       Cr569   1.918       .  S
O561        C562   1.242       .  A
C562        O563   1.270       .  A
C562       C1293   1.409       .  S
O563       Cr570   2.017       .  S
O564       Cr570   1.985       .  S
O564        C565   1.262       .  A
C565        O566   1.274       .  A
C565       C1100   1.459       .  S
O566       Cr571   2.041       .  S
O567       Cr571   1.994       .  S
O567        C568   1.256       .  A
C568       C1286   1.456       .  S
Cr569       O572   1.800       .  S
Cr570       O572   1.774       .  S
Cr571       O572   1.770       .  S
O573       Cr591   1.915       .  S
O573        C581   1.242       .  A
O574       Cr591   1.988       .  S
O574        C575   1.256       .  A
C575        O576   1.257       .  A
C575       C1295   1.419       .  S
O576       Cr592   1.970       .  S
O577       Cr592   2.037       .  S
O577        C578   1.272       .  A
C578        O579   1.259       .  A
C578       C1099   1.458       .  S
O579       Cr593   1.982       .  S
O580       Cr593   2.045       .  S
O580        C581   1.279       .  A
C581       C1287   1.435       .  S
O582       Cr591   1.979       .  S
O582        C590   1.259       .  A
O583       Cr591   1.903       .  S
O583        C584   1.239       .  A
C584        O585   1.273       .  A
C584       C1134   1.397       .  S
O585       Cr592   2.031       .  S
O586       Cr592   1.982       .  S
O586        C587   1.261       .  A
C587        O588   1.270       .  A
C587       C1095   1.447       .  S
O588       Cr593   2.023       .  S
O589       Cr593   2.008       .  S
O589        C590   1.255       .  A
C590       C1141   1.465       .  S
Cr591       O594   1.795       .  S
Cr592       O594   1.763       .  S
Cr593       O594   1.777       .  S
O595       Cr613   1.981       .  S
O595        C603   1.261       .  A
O596       Cr613   1.907       .  S
O596        C597   1.240       .  A
C597        O598   1.271       .  A
C597       C1216   1.398       .  S
O598       Cr614   2.017       .  S
O599       Cr614   1.984       .  S
O599        C600   1.263       .  A
C600        O601   1.266       .  A
C600       C1103   1.442       .  S
O601       Cr615   2.012       .  S
O602       Cr615   2.000       .  S
O602        C603   1.255       .  A
C603       C1220   1.461       .  S
O604       Cr613   1.922       .  S
O604        C612   1.244       .  A
O605       Cr613   1.987       .  S
O605        C606   1.257       .  A
C606        O607   1.257       .  A
C606       C1166   1.432       .  S
O607       Cr614   1.978       .  S
O608       Cr614   2.009       .  S
O608        C609   1.265       .  A
C609        O610   1.259       .  A
C609       C1093   1.436       .  S
O610       Cr615   1.976       .  S
O611       Cr615   2.031       .  S
O611        C612   1.276       .  A
C612       C1157   1.432       .  S
Cr613       O616   1.800       .  S
Cr614       O616   1.765       .  S
Cr615       O616   1.777       .  S
O617       Cr635   1.950       .  S
O617        C625   1.252       .  A
O618       Cr635   1.979       .  S
O618        C619   1.257       .  A
C619        O620   1.258       .  A
C619       C1168   1.427       .  S
O620       Cr636   1.981       .  S
O621       Cr636   2.000       .  S
O621        C622   1.261       .  A
C622        O623   1.257       .  A
C622       C1094   1.436       .  S
O623       Cr637   1.981       .  S
O624       Cr637   2.055       .  S
O624        C625   1.281       .  A
C625       C1160   1.452       .  S
O626       Cr635   1.976       .  S
O626        C634   1.254       .  A
O627       Cr635   1.954       .  S
O627        C628   1.252       .  A
C628        O629   1.265       .  A
C628       C1197   1.415       .  S
O629       Cr636   2.004       .  S
O630       Cr636   1.971       .  S
O630        C631   1.260       .  A
C631        O632   1.275       .  A
C631       C1091   1.448       .  S
O632       Cr637   2.037       .  S
O633       Cr637   1.989       .  S
O633        C634   1.253       .  A
C634       C1206   1.441       .  S
Cr635       O638   1.786       .  S
Cr636       O638   1.774       .  S
Cr637       O638   1.768       .  S
O639       Cr657   1.914       .  S
O639        C647   1.243       .  A
O640       Cr657   1.986       .  S
O640        C641   1.259       .  A
C641        O642   1.256       .  A
C641       C1176   1.429       .  S
O642       Cr658   1.971       .  S
O643       Cr658   2.030       .  S
O643        C644   1.269       .  A
C644        O645   1.263       .  A
C644       C1087   1.464       .  S
O645       Cr659   1.998       .  S
O646       Cr659   2.043       .  S
O646        C647   1.279       .  A
C647       C1184   1.429       .  S
O648       Cr657   1.983       .  S
O648        C656   1.258       .  A
O649       Cr657   1.913       .  S
O649        C650   1.241       .  A
C650        O651   1.271       .  A
C650       C1278   1.406       .  S
O651       Cr658   2.022       .  S
O652       Cr658   1.973       .  S
O652        C653   1.259       .  A
C653        O654   1.270       .  A
C653       C1089   1.441       .  S
O654       Cr659   2.019       .  S
O655       Cr659   2.006       .  S
O655        C656   1.255       .  A
C656       C1281   1.463       .  S
Cr657       O660   1.804       .  S
Cr658       O660   1.772       .  S
Cr659       O660   1.772       .  S
O661       Cr679   1.922       .  S
O661        C669   1.245       .  A
O662       Cr679   1.983       .  S
O662        C663   1.255       .  A
C663        O664   1.260       .  A
C663       C1280   1.422       .  S
O664       Cr680   1.980       .  S
O665       Cr680   2.014       .  S
O665        C666   1.266       .  A
C666        O667   1.259       .  A
C666       C1090   1.441       .  S
O667       Cr681   1.979       .  S
O668       Cr681   2.041       .  S
O668        C669   1.279       .  A
C669       C1284   1.434       .  S
O670       Cr679   1.978       .  S
O670        C678   1.257       .  A
O671       Cr679   1.910       .  S
O671        C672   1.242       .  A
C672        O673   1.270       .  A
C672       C1230   1.393       .  S
O673       Cr680   2.018       .  S
O674       Cr680   1.983       .  S
O674        C675   1.263       .  A
C675        O676   1.269       .  A
C675       C1085   1.445       .  S
O676       Cr681   2.019       .  S
O677       Cr681   2.007       .  S
O677        C678   1.255       .  A
C678       C1222   1.461       .  S
Cr679       O682   1.792       .  S
Cr680       O682   1.764       .  S
Cr681       O682   1.773       .  S
O683       Cr701   1.981       .  S
O683        C691   1.258       .  A
O684       Cr701   1.905       .  S
O684        C685   1.241       .  A
C685        O686   1.265       .  A
C685       C1240   1.379       .  S
O686       Cr702   1.998       .  S
O687       Cr702   1.986       .  S
O687        C688   1.263       .  A
C688        O689   1.270       .  A
C688       C1084   1.449       .  S
O689       Cr703   2.022       .  S
O690       Cr703   2.003       .  S
O690        C691   1.254       .  A
C691       C1247   1.460       .  S
O692       Cr701   1.917       .  S
O692        C700   1.244       .  A
O693       Cr701   1.985       .  S
O693        C694   1.256       .  A
C694        O695   1.260       .  A
C694       C1150   1.417       .  S
O695       Cr702   1.973       .  S
O696       Cr702   2.011       .  S
O696        C697   1.264       .  A
C697        O698   1.259       .  A
C697       C1097   1.442       .  S
O698       Cr703   1.982       .  S
O699       Cr703   2.042       .  S
O699        C700   1.279       .  A
C700       C1153   1.431       .  S
Cr701       O704   1.796       .  S
Cr702       O704   1.764       .  S
Cr703       O704   1.770       .  S
O705       Cr723   1.975       .  S
O705        C713   1.256       .  A
O706       Cr723   1.918       .  S
O706        C707   1.246       .  A
C707        O708   1.274       .  A
C707       C1232   1.407       .  S
O708       Cr724   2.025       .  S
O709       Cr724   1.981       .  S
O709        C710   1.261       .  A
C710        O711   1.267       .  A
C710       C1086   1.445       .  S
O711       Cr725   2.015       .  S
O712       Cr725   2.010       .  S
O712        C713   1.255       .  A
C713       C1224   1.462       .  S
O714       Cr723   1.936       .  S
O714        C722   1.249       .  A
O715       Cr723   1.975       .  S
O715        C716   1.250       .  A
C716        O717   1.257       .  A
C716       C1261   1.423       .  S
O717       Cr724   1.984       .  S
O718       Cr724   2.019       .  S
O718        C719   1.268       .  A
C719        O720   1.260       .  A
C719       C1081   1.447       .  S
O720       Cr725   1.981       .  S
O721       Cr725   2.039       .  S
O721        C722   1.279       .  A
C722       C1269   1.439       .  S
Cr723       O726   1.801       .  S
Cr724       O726   1.765       .  S
Cr725       O726   1.778       .  S
O727       Cr745   1.935       .  S
O727        C735   1.244       .  A
O728       Cr745   1.998       .  S
O728        C729   1.262       .  A
C729        O730   1.258       .  A
C729       C1148   1.431       .  S
O730       Cr746   1.975       .  S
O731       Cr746   2.012       .  S
O731        C732   1.265       .  A
C732        O733   1.253       .  A
C732       C1077   1.428       .  S
O733       Cr747   1.961       .  S
O734       Cr747   2.042       .  S
O734        C735   1.280       .  A
C735       C1124   1.454       .  S
O736       Cr745   1.989       .  S
O736        C744   1.265       .  A
O737       Cr745   1.915       .  S
O737        C738   1.241       .  A
C738        O739   1.270       .  A
C738       C1233   1.406       .  S
O739       Cr746   2.022       .  S
O740       Cr746   1.983       .  S
O740        C741   1.263       .  A
C741        O742   1.271       .  A
C741       C1079   1.450       .  S
O742       Cr747   2.029       .  S
O743       Cr747   1.997       .  S
O743        C744   1.253       .  A
C744       C1249   1.469       .  S
Cr745       O748   1.795       .  S
Cr746       O748   1.762       .  S
Cr747       O748   1.779       .  S
O749       Cr767   1.986       .  S
O749        C757   1.261       .  A
O750       Cr767   1.927       .  S
O750        C751   1.244       .  A
C751        O752   1.268       .  A
C751       C1135   1.411       .  S
O752       Cr768   2.015       .  S
O753       Cr768   1.981       .  S
O753        C754   1.262       .  A
C754        O755   1.270       .  A
C754       C1096   1.446       .  S
O755       Cr769   2.024       .  S
O756       Cr769   2.008       .  S
O756        C757   1.258       .  A
C757       C1144   1.468       .  S
O758       Cr767   1.941       .  S
O758        C766   1.247       .  A
O759       Cr767   1.981       .  S
O759        C760   1.258       .  A
C760        O761   1.258       .  A
C760       C1238   1.430       .  S
O761       Cr768   1.977       .  S
O762       Cr768   2.015       .  S
O762        C763   1.266       .  A
C763        O764   1.263       .  A
C763       C1083   1.449       .  S
O764       Cr769   1.993       .  S
O765       Cr769   2.048       .  S
O765        C766   1.279       .  A
C766       C1246   1.447       .  S
Cr767       O770   1.798       .  S
Cr768       O770   1.771       .  S
Cr769       O770   1.769       .  S
O771       Cr789   1.977       .  S
O771        C779   1.255       .  A
O772       Cr789   1.920       .  S
O772        C773   1.247       .  A
C773        O774   1.268       .  A
C773       C1163   1.392       .  S
O774       Cr790   2.004       .  S
O775       Cr790   1.987       .  S
O775        C776   1.263       .  A
C776        O777   1.271       .  A
C776       C1073   1.455       .  S
O777       Cr791   2.028       .  S
O778       Cr791   2.006       .  S
O778        C779   1.254       .  A
C779       C1140   1.459       .  S
O780       Cr789   1.934       .  S
O780        C788   1.249       .  A
O781       Cr789   1.979       .  S
O781        C782   1.253       .  A
C782        O783   1.258       .  A
C782       C1209   1.423       .  S
O783       Cr790   1.983       .  S
O784       Cr790   2.000       .  S
O784        C785   1.263       .  A
C785        O786   1.258       .  A
C785       C1076   1.436       .  S
O786       Cr791   1.978       .  S
O787       Cr791   2.047       .  S
O787        C788   1.282       .  A
C788       C1178   1.445       .  S
Cr789       O792   1.798       .  S
Cr790       O792   1.765       .  S
Cr791       O792   1.773       .  S
O793       Cr811   1.929       .  S
O793        C801   1.245       .  A
O794       Cr811   1.992       .  S
O794        C795   1.259       .  A
C795        O796   1.261       .  A
C795       C1131   1.434       .  S
O796       Cr812   1.986       .  S
O797       Cr812   2.022       .  S
O797        C798   1.268       .  A
C798        O799   1.262       .  A
C798       C1070   1.454       .  S
O799       Cr813   1.992       .  S
O800       Cr813   2.024       .  S
O800        C801   1.276       .  A
C801       C1120   1.438       .  S
O802       Cr811   1.978       .  S
O802        C810   1.258       .  A
O803       Cr811   1.925       .  S
O803        C804   1.243       .  A
C804        O805   1.271       .  A
C804       C1290   1.410       .  S
O805       Cr812   2.023       .  S
O806       Cr812   1.990       .  S
O806        C807   1.264       .  A
C807        O808   1.265       .  A
C807       C1071   1.444       .  S
O808       Cr813   2.008       .  S
O809       Cr813   2.018       .  S
O809        C810   1.258       .  A
C810       C1266   1.472       .  S
Cr811       O814   1.805       .  S
Cr812       O814   1.759       .  S
Cr813       O814   1.781       .  S
O815       Cr833   1.911       .  S
O815        C823   1.242       .  A
O816       Cr833   1.982       .  S
O816        C817   1.257       .  A
C817        O818   1.260       .  A
C817       C1200   1.432       .  S
O818       Cr834   1.988       .  S
O819       Cr834   2.004       .  S
O819        C820   1.262       .  A
C820        O821   1.262       .  A
C820       C1092   1.448       .  S
O821       Cr835   1.994       .  S
O822       Cr835   2.046       .  S
O822        C823   1.281       .  A
C823       C1207   1.431       .  S
O824       Cr833   1.970       .  S
O824        C832   1.256       .  A
O825       Cr833   1.908       .  S
O825        C826   1.239       .  A
C826        O827   1.268       .  A
C826       C1110   1.394       .  S
O827       Cr834   2.012       .  S
O828       Cr834   1.982       .  S
O828        C829   1.264       .  A
C829        O830   1.271       .  A
C829       C1102   1.447       .  S
O830       Cr835   2.025       .  S
O831       Cr835   2.008       .  S
O831        C832   1.254       .  A
C832       C1125   1.462       .  S
Cr833       O836   1.801       .  S
Cr834       O836   1.764       .  S
Cr835       O836   1.776       .  S
O837       Cr855   1.984       .  S
O837        C845   1.260       .  A
O838       Cr855   1.914       .  S
O838        C839   1.242       .  A
C839        O840   1.269       .  A
C839       C1195   1.399       .  S
O840       Cr856   2.009       .  S
O841       Cr856   1.971       .  S
O841        C842   1.258       .  A
C842        O843   1.272       .  A
C842       C1068   1.447       .  S
O843       Cr857   2.032       .  S
O844       Cr857   2.001       .  S
O844        C845   1.256       .  A
C845       C1187   1.459       .  S
O846       Cr855   1.929       .  S
O846        C854   1.248       .  A
O847       Cr855   1.984       .  S
O847        C848   1.256       .  A
C848        O849   1.256       .  A
C848       C1161   1.421       .  S
O849       Cr856   1.969       .  S
O850       Cr856   2.020       .  S
O850        C851   1.267       .  A
C851        O852   1.262       .  A
C851       C1074   1.454       .  S
O852       Cr857   1.992       .  S
O853       Cr857   2.045       .  S
O853        C854   1.280       .  A
C854       C1138   1.436       .  S
Cr855       O858   1.804       .  S
Cr856       O858   1.766       .  S
Cr857       O858   1.772       .  S
O859       Cr877   1.980       .  S
O859        C867   1.259       .  A
O860       Cr877   1.908       .  S
O860        C861   1.240       .  A
C861        O862   1.273       .  A
C861       C1212   1.405       .  S
O862       Cr878   2.026       .  S
O863       Cr878   1.974       .  S
O863        C864   1.259       .  A
C864        O865   1.266       .  A
C864       C1075   1.436       .  S
O865       Cr879   2.011       .  S
O866       Cr879   2.007       .  S
O866        C867   1.257       .  A
C867       C1179   1.462       .  S
O868       Cr877   1.924       .  S
O868        C876   1.245       .  A
O869       Cr877   1.975       .  S
O869        C870   1.254       .  A
C870        O871   1.256       .  A
C870       C1106   1.427       .  S
O871       Cr878   1.977       .  S
O872       Cr878   2.029       .  S
O872        C873   1.271       .  A
C873        O874   1.264       .  A
C873       C1066   1.458       .  S
O874       Cr879   1.994       .  S
O875       Cr879   2.036       .  S
O875        C876   1.276       .  A
C876       C1114   1.427       .  S
Cr877       O880   1.799       .  S
Cr878       O880   1.769       .  S
Cr879       O880   1.773       .  S
O881       Cr899   1.927       .  S
O881        C889   1.246       .  A
O882       Cr899   1.993       .  S
O882        C883   1.262       .  A
C883        O884   1.252       .  A
C883       C1292   1.412       .  S
O884       Cr900   1.949       .  S
O885       Cr900   2.006       .  S
O885        C886   1.262       .  A
C886        O887   1.261       .  A
C886       C1072   1.444       .  S
O887       Cr901   1.994       .  S
O888       Cr901   2.037       .  S
O888        C889   1.275       .  A
C889       C1268   1.431       .  S
O890       Cr899   1.996       .  S
O890        C898   1.261       .  A
O891       Cr899   1.932       .  S
O891        C892   1.247       .  A
C892        O893   1.265       .  A
C892       C1145   1.408       .  S
O893       Cr900   2.009       .  S
O894       Cr900   1.952       .  S
O894        C895   1.256       .  A
C895        O896   1.271       .  A
C895       C1078   1.427       .  S
O896       Cr901   2.024       .  S
O897       Cr901   1.999       .  S
O897        C898   1.259       .  A
C898       C1122   1.454       .  S
Cr899       O902   1.783       .  S
Cr900       O902   1.769       .  S
Cr901       O902   1.764       .  S
O903       Cr921   1.978       .  S
O903        C911   1.258       .  A
O904       Cr921   1.916       .  S
O904        C905   1.243       .  A
C905        O906   1.271       .  A
C905       C1264   1.406       .  S
O906       Cr922   2.020       .  S
O907       Cr922   1.972       .  S
O907        C908   1.258       .  A
C908        O909   1.271       .  A
C908       C1082   1.446       .  S
O909       Cr923   2.028       .  S
O910       Cr923   2.009       .  S
O910        C911   1.257       .  A
C911       C1271   1.462       .  S
O912       Cr921   1.932       .  S
O912        C920   1.248       .  A
O913       Cr921   1.972       .  S
O913        C914   1.254       .  A
C914        O915   1.254       .  A
C914       C1174   1.417       .  S
O915       Cr922   1.968       .  S
O916       Cr922   2.030       .  S
O916        C917   1.270       .  A
C917        O918   1.264       .  A
C917       C1088   1.464       .  S
O918       Cr923   1.998       .  S
O919       Cr923   2.047       .  S
O919        C920   1.279       .  A
C920       C1181   1.439       .  S
Cr921       O924   1.802       .  S
Cr922       O924   1.772       .  S
Cr923       O924   1.771       .  S
O925       Cr943   1.921       .  S
O925        C933   1.243       .  A
O926       Cr943   1.986       .  S
O926        C927   1.259       .  A
C927        O928   1.260       .  A
C927       C1227   1.433       .  S
O928       Cr944   1.984       .  S
O929       Cr944   2.021       .  S
O929        C930   1.267       .  A
C930        O931   1.265       .  A
C930       C1061   1.463       .  S
O931       Cr945   2.006       .  S
O932       Cr945   2.058       .  S
O932        C933   1.283       .  A
C933       C1204   1.446       .  S
O934       Cr943   1.973       .  S
O934        C942   1.255       .  A
O935       Cr943   1.925       .  S
O935        C936   1.242       .  A
C936        O937   1.272       .  A
C936       C1274   1.415       .  S
O937       Cr944   2.032       .  S
O938       Cr944   1.984       .  S
O938        C939   1.265       .  A
C939        O940   1.270       .  A
C939       C1063   1.447       .  S
O940       Cr945   2.022       .  S
O941       Cr945   2.026       .  S
O941        C942   1.259       .  A
C942       C1242   1.475       .  S
Cr943       O946   1.799       .  S
Cr944       O946   1.764       .  S
Cr945       O946   1.775       .  S
O947       Cr965   1.985       .  S
O947        C955   1.258       .  A
O948       Cr965   1.941       .  S
O948        C949   1.250       .  A
C949        O950   1.265       .  A
C949       C1275   1.406       .  S
O950       Cr966   2.001       .  S
O951       Cr966   1.966       .  S
O951        C952   1.257       .  A
C952        O953   1.273       .  A
C952       C1064   1.445       .  S
O953       Cr967   2.038       .  S
O954       Cr967   1.978       .  S
O954        C955   1.252       .  A
C955       C1243   1.437       .  S
O956       Cr965   1.941       .  S
O956        C964   1.251       .  A
O957       Cr965   1.995       .  S
O957        C958   1.260       .  A
C958        O959   1.257       .  A
C958       C1170   1.427       .  S
O959       Cr966   1.973       .  S
O960       Cr966   1.996       .  S
O960        C961   1.262       .  A
C961        O962   1.254       .  A
C961       C1060   1.421       .  S
O962       Cr967   1.963       .  S
O963       Cr967   2.040       .  S
O963        C964   1.277       .  A
C964       C1190   1.437       .  S
Cr965       O968   1.781       .  S
Cr966       O968   1.762       .  S
Cr967       O968   1.773       .  S
O969       Cr987   1.916       .  S
O969        C977   1.243       .  A
O970       Cr987   1.995       .  S
O970        C971   1.263       .  A
C971        O972   1.263       .  A
C971       C1260   1.440       .  S
O972       Cr988   1.993       .  S
O973       Cr988   2.002       .  S
O973        C974   1.260       .  A
C974        O975   1.256       .  A
C974       C1057   1.440       .  S
O975       Cr989   1.982       .  S
O976       Cr989   2.054       .  S
O976        C977   1.283       .  A
C977       C1256   1.441       .  S
O978       Cr987   1.977       .  S
O978        C986   1.256       .  A
O979       Cr987   1.924       .  S
O979        C980   1.243       .  A
C980        O981   1.264       .  A
C980       C1226   1.398       .  S
O981       Cr988   2.004       .  S
O982       Cr988   1.990       .  S
O982        C983   1.266       .  A
C983        O984   1.278       .  A
C983       C1062   1.463       .  S
O984       Cr989   2.045       .  S
O985       Cr989   1.993       .  S
O985        C986   1.251       .  A
C986       C1202   1.453       .  S
Cr987       O990   1.798       .  S
Cr988       O990   1.766       .  S
Cr989       O990   1.772       .  S
O991      Cr1009   1.975       .  S
O991        C999   1.255       .  A
O992      Cr1009   1.912       .  S
O992        C993   1.245       .  A
C993        O994   1.274       .  A
C993       C1107   1.400       .  S
O994      Cr1010   2.028       .  S
O995      Cr1010   1.991       .  S
O995        C996   1.264       .  A
C996        O997   1.272       .  A
C996       C1065   1.458       .  S
O997      Cr1011   2.028       .  S
O998      Cr1011   2.007       .  S
O998        C999   1.254       .  A
C999       C1115   1.461       .  S
O1000     Cr1009   1.928       .  S
O1000      C1008   1.247       .  A
O1001     Cr1009   1.978       .  S
O1001      C1002   1.251       .  A
C1002      O1003   1.260       .  A
C1002      C1194   1.422       .  S
O1003     Cr1010   1.986       .  S
O1004     Cr1010   2.026       .  S
O1004      C1005   1.269       .  A
C1005      O1006   1.256       .  A
C1005      C1067   1.447       .  S
O1006     Cr1011   1.974       .  S
O1007     Cr1011   2.046       .  S
O1007      C1008   1.282       .  A
C1008      C1185   1.442       .  S
Cr1009     O1012   1.798       .  S
Cr1010     O1012   1.764       .  S
Cr1011     O1012   1.776       .  S
O1013     Cr1031   1.940       .  S
O1013      C1021   1.250       .  A
O1014     Cr1031   1.984       .  S
O1014      C1015   1.258       .  A
C1015      O1016   1.256       .  A
C1015      C1235   1.431       .  S
O1016     Cr1032   1.979       .  S
O1017     Cr1032   2.008       .  S
O1017      C1018   1.264       .  A
C1018      O1019   1.261       .  A
C1018      C1080   1.449       .  S
O1019     Cr1033   1.994       .  S
O1020     Cr1033   2.053       .  S
O1020      C1021   1.281       .  A
C1021      C1252   1.445       .  S
O1022     Cr1031   1.993       .  S
O1022      C1030   1.259       .  A
O1023     Cr1031   1.928       .  S
O1023      C1024   1.246       .  A
C1024      O1025   1.266       .  A
C1024      C1130   1.404       .  S
O1025     Cr1032   2.000       .  S
O1026     Cr1032   1.973       .  S
O1026      C1027   1.259       .  A
C1027      O1028   1.275       .  A
C1027      C1069   1.453       .  S
O1028     Cr1033   2.041       .  S
O1029     Cr1033   2.002       .  S
O1029      C1030   1.257       .  A
C1030      C1118   1.459       .  S
Cr1031     O1034   1.797       .  S
Cr1032     O1034   1.777       .  S
Cr1033     O1034   1.763       .  S
O1035     Cr1053   1.941       .  S
O1035      C1043   1.249       .  A
O1036     Cr1053   1.986       .  S
O1036      C1037   1.260       .  A
C1037      O1038   1.258       .  A
C1037      C1171   1.424       .  S
O1038     Cr1054   1.974       .  S
O1039     Cr1054   1.988       .  S
O1039      C1040   1.259       .  A
C1040      O1041   1.255       .  A
C1040      C1059   1.420       .  S
O1041     Cr1055   1.970       .  S
O1042     Cr1055   2.036       .  S
O1042      C1043   1.277       .  A
C1043      C1192   1.441       .  S
O1044     Cr1053   1.987       .  S
O1044      C1052   1.258       .  A
O1045     Cr1053   1.941       .  S
O1045      C1046   1.250       .  A
C1046      O1047   1.263       .  A
C1046      C1258   1.404       .  S
O1047     Cr1054   1.997       .  S
O1048     Cr1054   1.969       .  S
O1048      C1049   1.261       .  A
C1049      O1050   1.273       .  A
C1049      C1058   1.440       .  S
O1050     Cr1055   2.030       .  S
O1051     Cr1055   1.980       .  S
O1051      C1052   1.253       .  A
C1052      C1253   1.440       .  S
Cr1053     O1056   1.786       .  S
Cr1054     O1056   1.766       .  S
Cr1055     O1056   1.767       .  S
C1057      C1058   1.209       .  T
C1059      C1060   1.197       .  T
C1061      C1062   1.223       .  T
C1063      C1064   1.213       .  T
C1065      C1066   1.219       .  T
C1067      C1068   1.213       .  T
C1069      C1070   1.217       .  T
C1071      C1072   1.211       .  T
C1073      C1074   1.217       .  T
C1075      C1076   1.206       .  T
C1077      C1078   1.202       .  T
C1079      C1080   1.214       .  T
C1081      C1082   1.213       .  T
C1083      C1084   1.214       .  T
C1085      C1086   1.212       .  T
C1087      C1088   1.223       .  T
C1089      C1090   1.209       .  T
C1091      C1092   1.214       .  T
C1093      C1094   1.206       .  T
C1095      C1096   1.213       .  T
C1097      C1098   1.210       .  T
C1099      C1100   1.220       .  T
C1101      C1102   1.213       .  T
C1103      C1104   1.210       .  T
C1105      C1106   1.201       .  T
C1107      C1108   1.186       .  T
C1109      C1110   1.182       .  T
C1111      C1112   1.189       .  T
C1113      C1114   1.205       .  T
C1115      C1116   1.221       .  T
C1117      C1118   1.221       .  T
C1119      C1120   1.213       .  T
C1121      C1122   1.218       .  T
C1123      C1124   1.222       .  T
C1125      C1126   1.222       .  T
C1127      C1128   1.215       .  T
C1129      C1130   1.189       .  T
C1131      C1132   1.204       .  T
C1133      C1134   1.183       .  T
C1135      C1136   1.193       .  T
C1137      C1138   1.210       .  T
C1139      C1140   1.220       .  T
C1141      C1142   1.224       .  T
C1143      C1144   1.225       .  T
C1145      C1146   1.192       .  T
C1147      C1148   1.203       .  T
C1149      C1150   1.194       .  T
C1151      C1152   1.207       .  T
C1153      C1154   1.209       .  T
C1155      C1156   1.213       .  T
C1157      C1158   1.209       .  T
C1159      C1160   1.218       .  T
C1161      C1162   1.197       .  T
C1163      C1164   1.181       .  T
C1165      C1166   1.204       .  T
C1167      C1168   1.201       .  T
C1169      C1170   1.201       .  T
C1171      C1172   1.198       .  T
C1173      C1174   1.195       .  T
C1175      C1176   1.202       .  T
C1177      C1178   1.216       .  T
C1179      C1180   1.222       .  T
C1181      C1182   1.212       .  T
C1183      C1184   1.207       .  T
C1185      C1186   1.214       .  T
C1187      C1188   1.220       .  T
C1189      C1190   1.210       .  T
C1191      C1192   1.213       .  T
C1193      C1194   1.197       .  T
C1195      C1196   1.187       .  T
C1197      C1198   1.194       .  T
C1199      C1200   1.203       .  T
C1201      C1202   1.217       .  T
C1203      C1204   1.218       .  T
C1205      C1206   1.210       .  T
C1207      C1208   1.208       .  T
C1209      C1210   1.198       .  T
C1211      C1212   1.190       .  T
C1213      C1214   1.197       .  T
C1215      C1216   1.183       .  T
C1217      C1218   1.211       .  T
C1219      C1220   1.221       .  T
C1221      C1222   1.221       .  T
C1223      C1224   1.222       .  T
C1225      C1226   1.185       .  T
C1227      C1228   1.204       .  T
C1229      C1230   1.181       .  T
C1231      C1232   1.189       .  T
C1233      C1234   1.189       .  T
C1235      C1236   1.204       .  T
C1237      C1238   1.202       .  T
C1239      C1240   1.173       .  T
C1241      C1242   1.229       .  T
C1243      C1244   1.208       .  T
C1245      C1246   1.216       .  T
C1247      C1248   1.221       .  T
C1249      C1250   1.227       .  T
C1251      C1252   1.214       .  T
C1253      C1254   1.210       .  T
C1255      C1256   1.215       .  T
C1257      C1258   1.188       .  T
C1259      C1260   1.208       .  T
C1261      C1262   1.198       .  T
C1263      C1264   1.190       .  T
C1265      C1266   1.228       .  T
C1267      C1268   1.207       .  T
C1269      C1270   1.212       .  T
C1271      C1272   1.222       .  T
C1273      C1274   1.194       .  T
C1275      C1276   1.189       .  T
C1277      C1278   1.191       .  T
C1279      C1280   1.198       .  T
C1281      C1282   1.223       .  T
C1283      C1284   1.210       .  T
C1285      C1286   1.219       .  T
C1287      C1288   1.211       .  T
C1289      C1290   1.191       .  T
C1291      C1292   1.193       .  T
C1293      C1294   1.193       .  T
C1295      C1296   1.197       .  T
