geometry optimzed in LAMMPS
_audit_creation_date              2020-11-30 
_audit_creation_method            'lammps2cif' 
_symmetry_space_group_name_H-M    'P1' 
_symmetry_Int_Tables_number       1 
_symmetry_cell_setting            triclinic 
loop_ 
_symmetry_equiv_pos_as_xyz 
  x,y,z 
_cell_length_a                    38.62265786 
_cell_length_b                    38.687164540101165 
_cell_length_c                    38.623063206549205 
_cell_angle_alpha                 89.89592085631848 
_cell_angle_beta                  89.96256777034083 
_cell_angle_gamma                 89.96319910457497 
loop_ 
_atom_site_label 
_atom_site_type_symbol 
_atom_site_fract_x 
_atom_site_fract_y 
_atom_site_fract_z 
_atom_site_charge 
O1          O  0.38052908  0.43487934  0.04624672    -0.82300
C2          C  0.24096813  0.41801976  0.02768148     0.97100
O3          O  0.26829695  0.42390200  0.01110316    -0.71400
O4          O  0.33902608  0.43092127  0.49528637    -0.75000
Al5        Al  0.30982406  0.40649039  0.02878533     1.49000
C6          C  0.34535962  0.46324443  0.49443514     0.92400
O7          O  0.32028818  0.00342373  0.08717220    -0.81200
O8          O  0.30505629  0.45839734  0.13040301    -0.74700
Al9        Al  0.34528281  0.46729448  0.06452497     1.90100
O10         O  0.26435619  0.48415806  0.07703142    -0.73800
O11         O  0.28669235  0.39554361  0.10887960    -0.73700
O12         O  0.24075502  0.42167115  0.06047841    -0.79300
O13         O  0.28616819  0.37105081  0.05739672    -0.77500
O14         O  0.31073077  0.43780572  0.06173833    -1.13700
O15         O  0.35097661  0.38652768  0.04351081    -0.72800
C16         C  0.37914274  0.40238673  0.04068206     0.97900
C17         C  0.28742383  0.00689233  0.08845077     0.94300
Al18       Al  0.27662365  0.43984206  0.09202793     1.55600
O19         O  0.33642609  0.48553006  0.02040976    -0.77500
C20         C  0.28169025  0.36946307  0.09012782     0.98400
C21         C  0.33784167  0.45940806  0.13413274     0.93300
O22         O  0.35718646  0.45162706  0.10910815    -0.82800
O23         O  0.36961494  0.06631371  0.29941928    -0.82300
C24         C  0.00590427  0.08460891  0.27642529     0.97100
O25         O  0.48171893  0.07563515  0.26217760    -0.71400
O26         O  0.41580689  0.06444291  0.24665635    -0.75000
Al27       Al  0.44060189  0.09344711  0.28071699     1.49000
C28         C  0.40924103  0.03213073  0.24684545     0.92400
O29         O  0.43329021  0.49124271  0.33191692    -0.81200
O30         O  0.44603895  0.04250379  0.38286246    -0.74700
Al31       Al  0.40459984  0.03353685  0.31792731     1.90100
O32         O  0.48529161  0.01460251  0.32932621    -0.73800
O33         O  0.46576707  0.10432456  0.36005256    -0.73700
O34         O  0.00727048  0.08035859  0.30919713    -0.79300
O35         O  0.46544179  0.12868178  0.30846345    -0.77500
O36         O  0.43976381  0.06227627  0.31404076    -1.13700
O37         O  0.39971647  0.11418077  0.29595296    -0.72800
C38         C  0.37126062  0.09873954  0.29337658     0.97900
C39         C  0.46607115  0.48755316  0.33276384     0.94300
Al40       Al  0.47434103  0.05966414  0.34366880     1.55600
O41         O  0.41272139  0.01462890  0.27405690    -0.77500
C42         C  0.47071304  0.13029345  0.34106480     0.98400
C43         C  0.41330129  0.04183762  0.38727962     0.93300
O44         O  0.39367370  0.04995398  0.36251701    -0.82800
O45         O  0.18195182  0.25339348  0.16298468    -0.82300
C46         C  0.21995671  0.11805190  0.16035109     0.97100
O47         O  0.21617915  0.14407298  0.14119514    -0.71400
O48         O  0.19644926  0.20553491  0.11777083    -0.75000
Al49       Al  0.22428503  0.18880748  0.15750154     1.49000
C50         C  0.16375815  0.20502711  0.11305609     0.92400
O51         O  0.11871119  0.18289938  0.20022846    -0.81200
O52         O  0.16456323  0.18512329  0.25370993    -0.74700
Al53       Al  0.15390481  0.21483621  0.18179582     1.90100
O54         O  0.14856009  0.13503571  0.20430931    -0.73800
O55         O  0.23029908  0.17242862  0.23917848    -0.73700
O56         O  0.21398285  0.11980038  0.19280653    -0.79300
O57         O  0.25968064  0.17223457  0.19069063    -0.77500
O58         O  0.18922689  0.18635191  0.18669799    -1.13700
O59         O  0.23468328  0.23401105  0.17165295    -0.72800
C60         C  0.21466545  0.25824402  0.16293878     0.97900
C61         C  0.12025498  0.15069013  0.20678651     0.94300
Al62       Al  0.18934246  0.15537446  0.22010803     1.55600
O63         O  0.14398917  0.19722086  0.13770849    -0.77500
C64         C  0.25841289  0.16824940  0.22343805     0.98400
C65         C  0.15675943  0.21719886  0.25253972     0.93300
O66         O  0.16082342  0.23427761  0.22514335    -0.82800
O67         O  0.49552337  0.32693890  0.43883795    -0.82300
C68         C  0.13042311  0.34928337  0.45696191     0.97100
O69         O  0.10195748  0.36476860  0.45461600    -0.71400
O70         O  0.03634249  0.37949674  0.44074471    -0.75000
Al71       Al  0.06091905  0.34356833  0.46859113     1.49000
C72         C  0.03156310  0.38173235  0.40802605     0.92400
O73         O  0.05709051  0.29419383  0.36562949    -0.81200
O74         O  0.06986935  0.24611749  0.41169042    -0.74700
Al75       Al  0.02827685  0.31125204  0.40452736     1.90100
O76         O  0.10881372  0.30189912  0.38734309    -0.73800
O77         O  0.08993855  0.26478607  0.47448990    -0.73700
O78         O  0.13238365  0.31707398  0.45019876    -0.79300
O79         O  0.08708475  0.31117620  0.00537600    -0.77500
O80         O  0.06243506  0.31315217  0.43488106    -1.13700
O81         O  0.01984130  0.32499454  0.48582940    -0.72800
C82         C  0.49622417  0.33150125  0.47152312     0.97900
C83         C  0.08992736  0.29286375  0.36251670     0.94300
Al84       Al  0.09777047  0.28457981  0.43114327     1.55600
O85         O  0.03736909  0.35613748  0.38880727    -0.77500
C86         C  0.09165050  0.27846828  0.00575665     0.98400
C87         C  0.03707692  0.24187449  0.41060283     0.93300
O88         O  0.01697502  0.26626639  0.41833766    -0.82800
C89         C  0.16222919  0.24954122  0.06663476    -0.21800
C90         C  0.14758320  0.21996133  0.08172837    -0.09800
C91         C  0.11387335  0.21011658  0.07189958     0.29100
C92         C  0.09512483  0.22999594  0.04806779    -0.21800
C93         C  0.10899372  0.26077526  0.03476341    -0.09800
C94         C  0.14293281  0.27017093  0.04391395     0.29100
F95         F  0.15790438  0.29866860  0.02998254    -0.20300
H96         H  0.18810032  0.25761755  0.07371146     0.17400
H97         H  0.06963801  0.22147733  0.04008414     0.17400
F98         F  0.09893178  0.18146796  0.08568356    -0.20300
C99         C  0.11131205  0.25739405  0.27357611    -0.21800
C100        C  0.13913845  0.23499637  0.28132644    -0.09800
C101        C  0.14995388  0.23146942  0.31566011     0.29100
C102        C  0.13415204  0.25125330  0.34150525    -0.21800
C103        C  0.10662414  0.27405429  0.33372781    -0.09800
C104        C  0.09476361  0.27635005  0.29960634     0.29100
F105        F  0.06792507  0.29744703  0.29131601    -0.20300
H106        H  0.10227505  0.26010134  0.24716630     0.17400
H107        H  0.14315601  0.24830944  0.36788854     0.17400
F108        F  0.17638070  0.20988542  0.32403554    -0.20300
C109        C  0.28048867  0.12608753  0.26680812    -0.21800
C110        C  0.28755452  0.15301602  0.24313715    -0.09800
C111        C  0.32192188  0.16302622  0.23775910     0.29100
C112        C  0.34864453  0.14622317  0.25567066    -0.21800
C113        C  0.34172707  0.11841121  0.27848231    -0.09800
C114        C  0.30724902  0.10858917  0.28394066     0.29100
F115        F  0.29942511  0.08203583  0.30556765    -0.20300
H116        H  0.25407302  0.11767511  0.27111818     0.17400
H117        H  0.37506235  0.15418512  0.25060148     0.17400
F118        F  0.32961411  0.18898829  0.21536482    -0.20300
C119        C  0.05658813  0.14145205  0.21466756    -0.21800
C120        C  0.09067403  0.13183666  0.22208790    -0.09800
C121        C  0.09673343  0.10567821  0.24705238     0.29100
C122        C  0.06919268  0.09005547  0.26453883    -0.21800
C123        C  0.03517351  0.09945352  0.25689512    -0.09800
C124        C  0.02899937  0.12515304  0.23152307     0.29100
F125        F  0.57801598  0.08772161  0.30737280    -0.20300
H126        H  0.05133826  0.16180090  0.19609009     0.17400
H127        H  0.07444873  0.07074061  0.28418889     0.17400
F128        F  0.12940855  0.09632821  0.25598905    -0.20300
C129        C  0.03137034  0.20171340  0.36094890    -0.21800
C130        C  0.02125138  0.21124123  0.39455101    -0.09800
C131        C  0.54004946  0.19240307  0.36932120     0.29100
C132        C  0.52134531  0.16882870  0.34910759    -0.21800
C133        C  0.48697414  0.16048531  0.35747258    -0.09800
C134        C  0.01172006  0.17802311  0.34184794     0.29100
F135        F  0.02248849  0.16887977  0.30967613    -0.20300
H136        H  0.05376882  0.21365277  0.34898636     0.17400
H137        H  0.53414718  0.15601409  0.32769613     0.17400
F138        F  0.57332235  0.19952606  0.36066299    -0.20300
C139        C  0.51775920  0.44998966  0.34253701    -0.21800
C140        C  0.48257456  0.45697484  0.34904604    -0.09800
C141        C  0.00897054  0.44823925  0.33998858     0.29100
C142        C  0.02737891  0.42362500  0.35922117    -0.21800
C143        C  0.01512283  0.41213846  0.39152155    -0.09800
C144        C  0.53599369  0.42608872  0.36277027     0.29100
F145        F  0.56940427  0.41864977  0.35477413    -0.20300
H146        H  0.53128374  0.46340304  0.32193281     0.17400
H147        H  0.05128243  0.41329929  0.34878068     0.17400
F148        F  0.02226192  0.45957510  0.30947043    -0.20300
C149        C  0.40973218  0.98574334  0.20229907    -0.21800
C150        C  0.39338750  0.01458012  0.21701643    -0.09800
C151        C  0.35879241  0.02169499  0.20828789     0.29100
C152        C  0.33892082  0.50463584  0.18017014    -0.21800
C153        C  0.35418729  0.47540118  0.16491537    -0.09800
C154        C  0.38804234  0.46614670  0.17480766     0.29100
F155        F  0.40368178  0.43802749  0.16077437    -0.20300
H156        H  0.43586042  0.97896532  0.20992701     0.17400
H157        H  0.31296619  0.51232632  0.17299307     0.17400
F158        F  0.34168461  0.04830386  0.22351617    -0.20300
C159        C  0.36111461  0.02755008  0.42319133    -0.21800
C160        C  0.39730914  0.02578712  0.41855092    -0.09800
C161        C  0.41645867  0.00362858  0.44030850     0.29100
C162        C  0.39801454  0.47731327  0.46090294    -0.21800
C163        C  0.36190597  0.47967923  0.46449068    -0.09800
C164        C  0.34361009  0.50363580  0.44443018     0.29100
F165        F  0.30462722  0.51175943  0.94629147    -0.20300
H166        H  0.34558956  0.04454085  0.40717018     0.17400
H167        H  0.41267137  0.46004586  0.47748031     0.17400
F168        F  0.45149062  0.00207060  0.43807382    -0.20300
C169        C  0.23000310  0.33393705  0.10256737    -0.21800
C170        C  0.26568350  0.33930494  0.10678610    -0.09800
C171        C  0.28345103  0.32085872  0.13247914     0.29100
C172        C  0.26618480  0.29577403  0.15208373    -0.21800
C173        C  0.23051935  0.28960016  0.14740791    -0.09800
C174        C  0.21235435  0.30981694  0.12311181     0.29100
F175        F  0.17774361  0.30589466  0.11866356    -0.20300
H176        H  0.21555352  0.34936787  0.08411389     0.17400
H177        H  0.28088817  0.28078628  0.17068791     0.17400
F178        F  0.31748763  0.32713251  0.13854666    -0.20300
C179        C  0.21832649  0.06973666  0.11818530    -0.21800
C180        C  0.23585449  0.08749059  0.14442712    -0.09800
C181        C  0.27129741  0.08115691  0.14956156     0.29100
C182        C  0.28875086  0.05688667  0.12913440    -0.21800
C183        C  0.27094718  0.03783307  0.10388743    -0.09800
C184        C  0.23544159  0.04466579  0.09846968     0.29100
F185        F  0.21723575  0.02709436  0.07412659    -0.20300
H186        H  0.19139814  0.07550315  0.11283832     0.17400
H187        H  0.31597725  0.05220028  0.13386623     0.17400
F188        F  0.28931064  0.09940334  0.17351673    -0.20300
C189        C  0.40195057  0.35719128  0.00104004    -0.21800
C190        C  0.40862423  0.38291634  0.02609196    -0.09800
C191        C  0.44653171  0.38522995  0.53677610     0.29100
C192        C  0.47329618  0.36801490  0.51945329    -0.21800
C193        C  0.46648477  0.34613251  0.49097366    -0.09800
C194        C  0.42902341  0.33973360  0.98451283     0.29100
F195        F  0.42175644  0.31593047  0.95978231    -0.20300
H196        H  0.37561754  0.35137493  0.99336146     0.17400
H197        H  0.49966634  0.37284778  0.52763746     0.17400
F198        F  0.45418515  0.40684641  0.56332011    -0.20300
C199        C  0.19345590  0.36456297  0.46001483    -0.21800
C200        C  0.15971313  0.36846831  0.47237870    -0.09800
C201        C  0.19316262  0.36623961  0.95955600     0.29100
C202        C  0.21807529  0.38682144  0.97587163    -0.21800
C203        C  0.21200843  0.40113362  0.00904634    -0.09800
C204        C  0.22092396  0.38188420  0.47607543     0.29100
F205        F  0.25328042  0.37696126  0.46324717    -0.20300
H206        H  0.19855448  0.34806365  0.43795289     0.17400
H207        H  0.24259392  0.39072857  0.96282763     0.17400
F208        F  0.19964781  0.35296799  0.92770095    -0.20300
O209        O  0.38444250  0.43148188  0.54793177    -0.82300
C210        C  0.24505624  0.41656365  0.52570177     0.97100
O211        O  0.27336752  0.41985737  0.51015893    -0.71400
O212        O  0.33377131  0.43536761  0.99392249    -0.75000
Al213      Al  0.31403952  0.40295036  0.53001899     1.49000
C214        C  0.34033311  0.46765251  0.99357477     0.92400
O215        O  0.32342725  0.00418566  0.58711130    -0.81200
O216        O  0.30742520  0.45706496  0.63034227    -0.74700
Al217      Al  0.34919448  0.46432339  0.56529914     1.90100
O218        O  0.26861137  0.48345864  0.57518977    -0.73800
O219        O  0.28709006  0.39450595  0.60923696    -0.73700
O220        O  0.24372769  0.42131671  0.55838532    -0.79300
O221        O  0.28879941  0.36859464  0.55859247    -0.77500
O222        O  0.31421190  0.43524724  0.56214794    -1.13700
O223        O  0.35494997  0.38309599  0.54651409    -0.72800
C224        C  0.38308063  0.39895123  0.54279843     0.97900
C225        C  0.29060579  0.00803226  0.58780089     0.94300
Al226      Al  0.27920362  0.43883233  0.59118369     1.55600
O227        O  0.34118521  0.48172764  0.52083591    -0.77500
C228        C  0.28243289  0.36795614  0.59104306     0.98400
C229        C  0.34022397  0.45738980  0.63487640     0.93300
O230        O  0.35995966  0.44911326  0.61029371    -0.82800
O231        O  0.36748135  0.06822823  0.80030313    -0.82300
C232        C  0.01182112  0.07546617  0.78147188     0.97100
O233        O  0.47903693  0.08308505  0.76470051    -0.71400
O234        O  0.41393429  0.06949684  0.74819045    -0.75000
Al235      Al  0.43732127  0.09859218  0.78334325     1.49000
C236        C  0.40832507  0.03698634  0.74761304     0.92400
O237        O  0.43316586  0.49435145  0.83504963    -0.81200
O238        O  0.44360247  0.04514219  0.88427227    -0.74700
Al239      Al  0.40334422  0.03648705  0.81850322     1.90100
O240        O  0.48463425  0.02003205  0.83054374    -0.73800
O241        O  0.46141649  0.10823357  0.86310077    -0.73700
O242        O  0.01027268  0.07452852  0.81441764    -0.79300
O243        O  0.46073469  0.13381296  0.81212772    -0.77500
O244        O  0.43752449  0.06644608  0.81572273    -1.13700
O245        O  0.39563717  0.11727166  0.79902405    -0.72800
C246        C  0.36798865  0.10077494  0.79496020     0.97900
C247        C  0.46594774  0.49073180  0.83738002     0.94300
Al248      Al  0.47182601  0.06429685  0.84577489     1.55600
O249        O  0.41242597  0.01893384  0.77436572    -0.77500
C250        C  0.46610615  0.13465907  0.84471168     0.98400
C251        C  0.41080162  0.04350867  0.88805937     0.93300
O252        O  0.39145018  0.05164843  0.86313325    -0.82800
O253        O  0.17897264  0.25280631  0.66254070    -0.82300
C254        C  0.21714405  0.11697136  0.65779547     0.97100
O255        O  0.21210860  0.14303678  0.63895294    -0.71400
O256        O  0.19166983  0.20493510  0.61654743    -0.75000
Al257      Al  0.22066804  0.18776941  0.65545080     1.49000
C258        C  0.15879037  0.20583920  0.61290291     0.92400
O259        O  0.11622402  0.18258668  0.70181147    -0.81200
O260        O  0.16334418  0.18331508  0.75290942    -0.74700
Al261      Al  0.15120929  0.21440198  0.68215473     1.90100
O262        O  0.14509039  0.13386289  0.70295134    -0.73800
O263        O  0.22799476  0.17042422  0.73678906    -0.73700
O264        O  0.21112352  0.11834792  0.69027207    -0.79300
O265        O  0.25681010  0.17086717  0.68792642    -0.77500
O266        O  0.18629126  0.18529590  0.68546194    -1.13700
O267        O  0.23182505  0.23295662  0.66957198    -0.72800
C268        C  0.21168764  0.25733905  0.66168650     0.97900
C269        C  0.11724772  0.15009460  0.70709480     0.94300
Al270      Al  0.18679759  0.15373968  0.71833434     1.55600
O271        O  0.13969024  0.19768904  0.63806521    -0.77500
C272        C  0.25589642  0.16659023  0.72067497     0.98400
C273        C  0.15646895  0.21561889  0.75280769     0.93300
O274        O  0.15986556  0.23328361  0.72567826    -0.82800
O275        O  0.49289028  0.32795159  0.94229795    -0.82300
C276        C  0.13292572  0.34193628  0.95892192     0.97100
O277        O  0.10568160  0.35894543  0.95446451    -0.71400
O278        O  0.04116402  0.37757676  0.94280545    -0.75000
Al279      Al  0.06391248  0.34129211  0.97076959     1.49000
C280        C  0.03601141  0.37938196  0.91024455     0.92400
O281        O  0.05782470  0.29057560  0.86906256    -0.81200
O282        O  0.06732161  0.24197496  0.91545949    -0.74700
Al283      Al  0.02898400  0.30888697  0.90786889     1.90100
O284        O  0.10962975  0.29481312  0.89171980    -0.73800
O285        O  0.08574818  0.26074719  0.97914966    -0.73700
O286        O  0.13299712  0.30928178  0.95462334    -0.79300
O287        O  0.08521434  0.31387276  0.50274330    -0.77500
O288        O  0.06297121  0.30960237  0.93815315    -1.13700
O289        O  0.02193406  0.32667572  0.98964508    -0.72800
C290        C  0.49298387  0.33167668  0.97507688     0.97900
C291        C  0.09073391  0.28792889  0.86616864     0.94300
Al292      Al  0.09653275  0.27884497  0.93543055     1.55600
O293        O  0.04002262  0.35308952  0.89158701    -0.77500
C294        C  0.09290395  0.28178928  0.50196234     0.98400
C295        C  0.03448480  0.23920454  0.91350496     0.93300
O296        O  0.01539267  0.26426222  0.92166173    -0.82800
C297        C  0.10583851  0.22782746  0.58253052    -0.21800
C298        C  0.14201206  0.22211022  0.58212929    -0.09800
C299        C  0.16152205  0.23684198  0.55507817     0.29100
C300        C  0.14527960  0.25747341  0.52996483    -0.21800
C301        C  0.10948003  0.26404120  0.53137896    -0.09800
C302        C  0.08974645  0.24848728  0.55743178     0.29100
F303        F  0.05489339  0.25287023  0.55830859    -0.20300
H304        H  0.08988799  0.21697118  0.60288508     0.17400
H305        H  0.16067264  0.26826721  0.50912150     0.17400
F306        F  0.19627661  0.23195952  0.55317344    -0.20300
C307        C  0.10583342  0.24540131  0.77853763    -0.21800
C308        C  0.13978348  0.23271383  0.78247954    -0.09800
C309        C  0.15780953  0.23961009  0.81299507     0.29100
C310        C  0.14204073  0.25903232  0.83917431    -0.21800
C311        C  0.10770495  0.27146607  0.83571346    -0.09800
C312        C  0.08967599  0.26418655  0.80502187     0.29100
F313        F  0.05653132  0.27496657  0.80061021    -0.20300
H314        H  0.09172984  0.24051152  0.75481262     0.17400
H315        H  0.15664104  0.26361759  0.86263582     0.17400
F316        F  0.19081890  0.22828349  0.81716245    -0.20300
C317        C  0.27815473  0.12260073  0.76172487    -0.21800
C318        C  0.28500310  0.15130271  0.74021661    -0.09800
C319        C  0.31871762  0.16424893  0.73840031     0.29100
C320        C  0.34506407  0.14862796  0.75787664    -0.21800
C321        C  0.33844044  0.11924297  0.77874142    -0.09800
C322        C  0.30459596  0.10637852  0.78041368     0.29100
F323        F  0.29709717  0.07809641  0.79985342    -0.20300
H324        H  0.25218996  0.11210019  0.76336001     0.17400
H325        H  0.37106927  0.15889235  0.75562464     0.17400
F326        F  0.32603961  0.19209725  0.71828293    -0.20300
C327        C  0.07140244  0.10424780  0.70868761    -0.21800
C328        C  0.08873997  0.13172931  0.72474391    -0.09800
C329        C  0.08382868  0.13703334  0.76043718     0.29100
C330        C  0.06177305  0.11564136  0.77950794    -0.21800
C331        C  0.04232553  0.08989873  0.76314121    -0.09800
C332        C  0.04765794  0.08403458  0.72744585     0.29100
F333        F  0.57477129  0.05860968  0.77628916    -0.20300
H334        H  0.07600130  0.09870601  0.68159082     0.17400
H335        H  0.05849508  0.12050102  0.80691228     0.17400
F336        F  0.10082172  0.16260728  0.77722483    -0.20300
C337        C  0.02866968  0.20179916  0.86176100    -0.21800
C338        C  0.01815920  0.20978586  0.89565449    -0.09800
C339        C  0.53761128  0.19210927  0.87637899     0.29100
C340        C  0.51851958  0.16958090  0.85539869    -0.21800
C341        C  0.48308868  0.16411618  0.86149283    -0.09800
C342        C  0.00993904  0.17817904  0.84168979     0.29100
F343        F  0.02011369  0.17204902  0.80869513    -0.20300
H344        H  0.05069505  0.21487132  0.85035347     0.17400
H345        H  0.53171051  0.15529236  0.83519833     0.17400
F346        F  0.57191925  0.19621264  0.87017258    -0.20300
C347        C  0.46420583  0.44261072  0.88060446    -0.21800
C348        C  0.48190768  0.46015111  0.85407854    -0.09800
C349        C  0.00891788  0.44144818  0.83984737     0.29100
C350        C  0.02752672  0.41636288  0.85813694    -0.21800
C351        C  0.02109355  0.41038878  0.89353166    -0.09800
C352        C  0.48157676  0.41871335  0.90169592     0.29100
F353        F  0.46367667  0.40173982  0.92675277    -0.20300
H354        H  0.43724150  0.44830626  0.88582404     0.17400
H355        H  0.04680859  0.40123900  0.84451385     0.17400
F356        F  0.01655408  0.44747874  0.80606148    -0.20300
C357        C  0.41284757  0.99845956  0.69632740    -0.21800
C358        C  0.39264385  0.01963336  0.71758503    -0.09800
C359        C  0.35636223  0.01783445  0.71502831     0.29100
C360        C  0.34121202  0.50197949  0.68183141    -0.21800
C361        C  0.35650037  0.47302406  0.66608882    -0.09800
C362        C  0.39051041  0.46389798  0.67582635     0.29100
F363        F  0.40621942  0.43592041  0.66158836    -0.20300
H364        H  0.44076143  0.99830086  0.69909125     0.17400
H365        H  0.31505997  0.50942118  0.67514378     0.17400
F366        F  0.33608832  0.03678786  0.73654314    -0.20300
C367        C  0.35797940  0.02731472  0.92201443    -0.21800
C368        C  0.39438846  0.02671161  0.91870382    -0.09800
C369        C  0.41343940  0.00516482  0.94113752     0.29100
C370        C  0.39358813  0.48246690  0.96118418    -0.21800
C371        C  0.35737696  0.48449378  0.96391342    -0.09800
C372        C  0.33942274  0.50805576  0.94300063     0.29100
F373        F  0.30896919  0.50771335  0.44877440    -0.20300
H374        H  0.34246340  0.04356214  0.90523103     0.17400
H375        H  0.40799065  0.46547699  0.97825468     0.17400
F376        F  0.44852549  0.00403372  0.93956522    -0.20300
C377        C  0.27545818  0.32870357  0.64181112    -0.21800
C378        C  0.26571365  0.33798952  0.60798363    -0.09800
C379        C  0.23606363  0.32272062  0.59344462     0.29100
C380        C  0.21680285  0.29849052  0.61244270    -0.21800
C381        C  0.22720460  0.28846700  0.64584324    -0.09800
C382        C  0.25686757  0.30367453  0.66031350     0.29100
F383        F  0.26783007  0.29427428  0.69236330    -0.20300
H384        H  0.29761524  0.34087718  0.65389121     0.17400
H385        H  0.19443004  0.28658181  0.60056300     0.17400
F386        F  0.22499369  0.33214017  0.56143268    -0.20300
C387        C  0.22306210  0.07543730  0.60896268    -0.21800
C388        C  0.23436093  0.08700053  0.64150470    -0.09800
C389        C  0.26618991  0.07485711  0.65439684     0.29100
C390        C  0.28612746  0.05153738  0.63501313    -0.21800
C391        C  0.27415132  0.03896117  0.60310598    -0.09800
C392        C  0.24231845  0.05110133  0.59027579     0.29100
F393        F  0.22987448  0.03935720  0.55961569    -0.20300
H394        H  0.19923708  0.08537748  0.59799167     0.17400
H395        H  0.31040361  0.04236236  0.64548739     0.17400
F396        F  0.27866587  0.08657028  0.68504545    -0.20300
C397        C  0.40520455  0.35744177  0.49885651    -0.21800
C398        C  0.41219149  0.37996876  0.52671691    -0.09800
C399        C  0.44288686  0.39021449  0.03506799     0.29100
C400        C  0.46990553  0.37198563  0.01934660    -0.21800
C401        C  0.46329177  0.34698796  0.99360285    -0.09800
C402        C  0.43206930  0.34111250  0.48073361     0.29100
F403        F  0.42440397  0.32060833  0.45331737    -0.20300
H404        H  0.37881304  0.35342363  0.49028380     0.17400
H405        H  0.49626237  0.37842804  0.02639735     0.17400
F406        F  0.45021974  0.41480652  0.05896264    -0.20300
C407        C  0.15508719  0.37488891  0.00859218    -0.21800
C408        C  0.16153692  0.36014229  0.97594626    -0.09800
C409        C  0.15378136  0.39019483  0.50118323     0.29100
C410        C  0.18134361  0.40654833  0.51800416    -0.21800
C411        C  0.21522832  0.40255478  0.50586848    -0.09800
C412        C  0.18013375  0.39480007  0.02527158     0.29100
F413        F  0.17320341  0.40749395  0.05727245    -0.20300
H414        H  0.13045758  0.37069354  0.02137727     0.17400
H415        H  0.17623077  0.42196614  0.54083049     0.17400
F416        F  0.12140212  0.39432280  0.51423669    -0.20300
O417        O  0.38473228  0.93441863  0.04866047    -0.82300
C418        C  0.24534536  0.91524705  0.03139389     0.97100
O419        O  0.27264403  0.92012898  0.01446087    -0.71400
O420        O  0.34173256  0.93316447  0.49840782    -0.75000
Al421      Al  0.31471266  0.90422664  0.03224756     1.49000
C422        C  0.34731998  0.96572747  0.49776899     0.92400
O423        O  0.31657178  0.50567077  0.08313565    -0.81200
O424        O  0.30933239  0.95535852  0.13388154    -0.74700
Al425      Al  0.34909589  0.96567876  0.06795644     1.90100
O426        O  0.26814167  0.98172918  0.08120154    -0.73800
O427        O  0.29076550  0.89287116  0.11213498    -0.73700
O428        O  0.24503698  0.91927241  0.06407329    -0.79300
O429        O  0.29185211  0.86828848  0.06075563    -0.77500
O430        O  0.31488361  0.93564366  0.06518562    -1.13700
O431        O  0.35660993  0.88537506  0.04700296    -0.72800
C432        C  0.38414149  0.90201750  0.04264605     0.97900
C433        C  0.28366512  0.50920672  0.08458182     0.94300
Al434      Al  0.28078218  0.93723285  0.09559081     1.55600
O435        O  0.33943388  0.98410452  0.02413283    -0.77500
C436        C  0.28619691  0.86681294  0.09327829     0.98400
C437        C  0.34211510  0.95678290  0.13753655     0.93300
O438        O  0.36158141  0.94972639  0.11234488    -0.82800
O439        O  0.36820870  0.56165079  0.29783925    -0.82300
C440        C  0.00495293  0.58460668  0.27909600     0.97100
O441        O  0.47812162  0.57796687  0.26016791    -0.71400
O442        O  0.41253492  0.56490088  0.24551677    -0.75000
Al443      Al  0.43726614  0.59292005  0.28082118     1.49000
C444        C  0.40772281  0.53227772  0.24376088     0.92400
O445        O  0.43256762  0.99470835  0.33690209    -0.81200
O446        O  0.44594984  0.53789183  0.37986698    -0.74700
Al447      Al  0.40448328  0.52970944  0.31453931     1.90100
O448        O  0.48531852  0.51255692  0.32477557    -0.73800
O449        O  0.46519011  0.60094459  0.35980001    -0.73700
O450        O  0.00586166  0.57911733  0.31163049    -0.79300
O451        O  0.46190980  0.62749212  0.30955676    -0.77500
O452        O  0.43858063  0.55988908  0.31210665    -1.13700
O453        O  0.39625771  0.61078561  0.29893226    -0.72800
C454        C  0.36854477  0.59444064  0.29461249     0.97900
C455        C  0.46534858  0.99018556  0.33750702     0.94300
Al456      Al  0.47372306  0.55686480  0.34106136     1.55600
O457        O  0.41334693  0.51336194  0.26968815    -0.77500
C458        C  0.46885572  0.62786116  0.34184724     0.98400
C459        C  0.41317749  0.53645185  0.38409492     0.93300
O460        O  0.39330382  0.54394789  0.35938335    -0.82800
O461        O  0.18422161  0.75439808  0.16833548    -0.82300
C462        C  0.21674864  0.61745316  0.16139685     0.97100
O463        O  0.21386311  0.64423824  0.14325506    -0.71400
O464        O  0.19635923  0.70666802  0.12203528    -0.75000
Al465      Al  0.22335836  0.68797561  0.16118109     1.49000
C466        C  0.16370651  0.70788927  0.11735465     0.92400
O467        O  0.11749953  0.68587283  0.20421631    -0.81200
O468        O  0.16195037  0.68309071  0.25649132    -0.74700
Al469      Al  0.15445850  0.71673275  0.18657425     1.90100
O470        O  0.14472260  0.63635887  0.20390954    -0.73800
O471        O  0.22734402  0.66757131  0.24239262    -0.73700
O472        O  0.20983186  0.61804120  0.19368471    -0.79300
O473        O  0.25740101  0.66936623  0.19415175    -0.77500
O474        O  0.18809441  0.68607411  0.19000490    -1.13700
O475        O  0.23559843  0.73209632  0.17676391    -0.72800
C476        C  0.21714704  0.75730139  0.16763023     0.97900
C477        C  0.11731101  0.65316100  0.20832782     0.94300
Al478      Al  0.18604362  0.65358491  0.22185163     1.55600
O479        O  0.14325500  0.70137631  0.14188576    -0.77500
C480        C  0.25556443  0.66400446  0.22664413     0.98400
C481        C  0.15758375  0.71585325  0.25737494     0.93300
O482        O  0.16338785  0.73403152  0.23095361    -0.82800
O483        O  0.49558819  0.82673669  0.44164227    -0.82300
C484        C  0.13438501  0.84796656  0.45881026     0.97100
O485        O  0.10675238  0.86437218  0.45410290    -0.71400
O486        O  0.04151825  0.88122297  0.44171852    -0.75000
Al487      Al  0.06496284  0.84630427  0.47076594     1.49000
C488        C  0.03384619  0.88109902  0.40960374     0.92400
O489        O  0.05692203  0.79196631  0.37122694    -0.81200
O490        O  0.06936247  0.74493317  0.41803037    -0.74700
Al491      Al  0.02892463  0.81048676  0.41003920     1.90100
O492        O  0.10973255  0.79853187  0.39133293    -0.73800
O493        O  0.08889587  0.76635847  0.48059644    -0.73700
O494        O  0.13454807  0.81525348  0.45434640    -0.79300
O495        O  0.08888901  0.81262891  0.00760810    -0.77500
O496        O  0.06399316  0.81360734  0.43905825    -1.13700
O497        O  0.02335969  0.83178569  0.49070574    -0.72800
C498        C  0.49764867  0.83107748  0.47427267     0.97900
C499        C  0.08968295  0.79094000  0.36675606     0.94300
Al500      Al  0.09822097  0.78350488  0.43628088     1.55600
O501        O  0.03719688  0.85417102  0.39179549    -0.77500
C502        C  0.09347602  0.77998551  0.00843434     0.98400
C503        C  0.03649390  0.74124849  0.41739402     0.93300
O504        O  0.01752950  0.76618311  0.42614593    -0.82800
C505        C  0.16001041  0.75628733  0.07574398    -0.21800
C506        C  0.14870805  0.72335785  0.08599819    -0.09800
C507        C  0.11823487  0.70981732  0.07158942     0.29100
C508        C  0.09950456  0.72899820  0.04724718    -0.21800
C509        C  0.11005072  0.76252875  0.03800028    -0.09800
C510        C  0.14063809  0.77598182  0.05231459     0.29100
F511        F  0.15241716  0.80764236  0.04278439    -0.20300
H512        H  0.18305606  0.76740309  0.08710872     0.17400
H513        H  0.07663980  0.71772457  0.03560747     0.17400
F514        F  0.10649817  0.67818800  0.08133907    -0.20300
C515        C  0.15606851  0.76422070  0.29980718    -0.21800
C516        C  0.14150518  0.73346166  0.28722861    -0.09800
C517        C  0.10810765  0.72404664  0.29824754     0.29100
C518        C  0.08995229  0.74485696  0.32178143    -0.21800
C519        C  0.10518149  0.77475164  0.33565889    -0.09800
C520        C  0.13848201  0.78431656  0.32431729     0.29100
F521        F  0.15401975  0.81309913  0.33699596    -0.20300
H522        H  0.18118224  0.77266257  0.29057719     0.17400
H523        H  0.06445480  0.73685131  0.33021530     0.17400
F524        F  0.09253132  0.69541841  0.28530584    -0.20300
C525        C  0.27770982  0.61956951  0.26728860    -0.21800
C526        C  0.28449017  0.64826959  0.24578740    -0.09800
C527        C  0.31852148  0.65976579  0.24178555     0.29100
C528        C  0.34529642  0.64297036  0.25936595    -0.21800
C529        C  0.33875048  0.61368676  0.28026921    -0.09800
C530        C  0.30463422  0.60198808  0.28394239     0.29100
F531        F  0.29737796  0.57355289  0.30325552    -0.20300
H532        H  0.25150602  0.60996852  0.27019291     0.17400
H533        H  0.37151730  0.65215206  0.25547061     0.17400
F534        F  0.32581944  0.68714660  0.22101906    -0.20300
C535        C  0.09344029  0.60305082  0.24135220    -0.21800
C536        C  0.08741894  0.63456433  0.22366589    -0.09800
C537        C  0.05412452  0.64897327  0.22455584     0.29100
C538        C  0.02760234  0.63201439  0.24246875    -0.21800
C539        C  0.03395579  0.60099856  0.26059477    -0.09800
C540        C  0.06709980  0.58665745  0.26005220     0.29100
F541        F  0.49793161  0.64624322  0.24399515    -0.20300
H542        H  0.11899869  0.59152387  0.24172281     0.17400
H543        H  0.00203057  0.64355042  0.24282584     0.17400
F544        F  0.04725810  0.67944905  0.20849628    -0.20300
C545        C  0.98284128  0.70831065  0.40198692    -0.21800
C546        C  0.01933218  0.71079934  0.40110057    -0.09800
C547        C  0.48796767  0.69860496  0.40675395     0.29100
C548        C  0.47033687  0.67304948  0.38799435    -0.21800
C549        C  0.48539277  0.65800241  0.35858793    -0.09800
C550        C  0.96518189  0.68390816  0.38189592     0.29100
F551        F  0.93018402  0.68165903  0.38417849    -0.20300
H552        H  0.96776084  0.72572027  0.41793611     0.17400
H553        H  0.44478327  0.66505015  0.39634912     0.17400
F554        F  0.47188049  0.71358643  0.43415303    -0.20300
C555        C  0.46756129  0.94576812  0.38435321    -0.21800
C556        C  0.48134903  0.95920381  0.35348507    -0.09800
C557        C  0.96884582  0.93070048  0.35651740     0.29100
C558        C  0.98511590  0.90445200  0.37538749    -0.21800
C559        C  0.01659443  0.91049053  0.39274918    -0.09800
C560        C  0.48672024  0.92259599  0.40476470     0.29100
F561        F  0.47260479  0.91027528  0.43448980    -0.20300
H562        H  0.44237043  0.95414773  0.39327763     0.17400
H563        H  0.97310621  0.87915985  0.37648431     0.17400
F564        F  0.93834267  0.92404911  0.34043557    -0.20300
C565        C  0.40603580  0.48573830  0.19938492    -0.21800
C566        C  0.39129928  0.51573557  0.21351798    -0.09800
C567        C  0.35745933  0.52501090  0.20377394     0.29100
C568        C  0.34116492  0.00064969  0.18466894    -0.21800
C569        C  0.35802203  0.97282952  0.16848705    -0.09800
C570        C  0.39253553  0.96542342  0.17772783     0.29100
F571        F  0.40961693  0.93851706  0.16300658    -0.20300
H572        H  0.43153973  0.47740599  0.20757037     0.17400
H573        H  0.31465563  0.00688944  0.17807676     0.17400
F574        F  0.34181103  0.55294512  0.21815534    -0.20300
C575        C  0.36097127  0.52366185  0.41981181    -0.21800
C576        C  0.39710803  0.52082690  0.41530716    -0.09800
C577        C  0.41563886  0.49796864  0.43681503     0.29100
C578        C  0.39947278  0.98215243  0.46419852    -0.21800
C579        C  0.36329556  0.98318439  0.46780805    -0.09800
C580        C  0.34438453  0.00703482  0.44803736     0.29100
F581        F  0.30603412  0.00852033  0.94949721    -0.20300
H582        H  0.34592656  0.54103750  0.40373559     0.17400
H583        H  0.41471874  0.96537791  0.48074258     0.17400
F584        F  0.45050190  0.49467357  0.43386313    -0.20300
C585        C  0.23296691  0.83891436  0.11493497    -0.21800
C586        C  0.26888512  0.83705201  0.10937233    -0.09800
C587        C  0.28785859  0.81050765  0.12497432     0.29100
C588        C  0.27093859  0.78576761  0.14533707    -0.21800
C589        C  0.23473010  0.78711273  0.15070145    -0.09800
C590        C  0.21592856  0.81423982  0.13532913     0.29100
F591        F  0.18114146  0.81681094  0.13960461    -0.20300
H592        H  0.21815430  0.86003105  0.10390733     0.17400
H593        H  0.28629289  0.76511491  0.15645131     0.17400
F594        F  0.32273196  0.80882153  0.12095424    -0.20300
C595        C  0.21416187  0.56876692  0.11980885    -0.21800
C596        C  0.23276986  0.58742905  0.14456956    -0.09800
C597        C  0.26886080  0.58307462  0.14663637     0.29100
C598        C  0.28588006  0.55970481  0.12480048    -0.21800
C599        C  0.26712821  0.53968100  0.10104461    -0.09800
C600        C  0.23095166  0.54476092  0.09855194     0.29100
F601        F  0.21167279  0.52639049  0.07567772    -0.20300
H602        H  0.18662745  0.57312331  0.11667255     0.17400
H603        H  0.31360305  0.55641030  0.12736537     0.17400
F604        F  0.28780619  0.60225977  0.16909110    -0.20300
C605        C  0.40659622  0.85412014  0.00545269    -0.21800
C606        C  0.41338646  0.88396285  0.02550772    -0.09800
C607        C  0.44973853  0.89708983  0.52774678     0.29100
C608        C  0.47573973  0.87977461  0.50942319    -0.21800
C609        C  0.46951352  0.84732797  0.49418794    -0.09800
C610        C  0.43269880  0.83831487  0.98584118     0.29100
F611        F  0.42530834  0.80990007  0.96667201    -0.20300
H612        H  0.38070540  0.84345958  0.00414736     0.17400
H613        H  0.50063826  0.89225749  0.50615603     0.17400
F614        F  0.45634015  0.92907243  0.54051997    -0.20300
C615        C  0.19648935  0.85019115  0.47848937    -0.21800
C616        C  0.16453341  0.86681764  0.47411482    -0.09800
C617        C  0.19668338  0.84707200  0.98209600     0.29100
C618        C  0.22253091  0.86461778  0.00025465    -0.21800
C619        C  0.21673259  0.89799908  0.01341953    -0.09800
C620        C  0.22347882  0.86633458  0.49653126     0.29100
F621        F  0.25393273  0.84919869  0.50016354    -0.20300
H622        H  0.20047728  0.82440211  0.46836369     0.17400
H623        H  0.24716551  0.85188415  0.00447976     0.17400
F624        F  0.20296175  0.81443717  0.97089850    -0.20300
O625        O  0.38770253  0.93386937  0.55043720    -0.82300
C626        C  0.24811932  0.91545612  0.53039460     0.97100
O627        O  0.27597495  0.91941044  0.51404148    -0.71400
O628        O  0.33768716  0.93401633  0.99730270    -0.75000
Al629      Al  0.31768215  0.90399168  0.53341889     1.49000
C630        C  0.34353606  0.96647867  0.99714236     0.92400
O631        O  0.32106357  0.50358751  0.58296042    -0.81200
O632        O  0.31152138  0.95695195  0.63419839    -0.74700
Al633      Al  0.35198222  0.96580754  0.56856326     1.90100
O634        O  0.27109841  0.98310847  0.58025437    -0.73800
O635        O  0.29223694  0.89415514  0.61295067    -0.73700
O636        O  0.24728627  0.92040677  0.56306916    -0.79300
O637        O  0.29360361  0.86883060  0.56202436    -0.77500
O638        O  0.31743546  0.93610869  0.56565852    -1.13700
O639        O  0.35908220  0.88514921  0.54986760    -0.72800
C640        C  0.38707105  0.90119065  0.54615480     0.97900
C641        C  0.28828722  0.50810856  0.58310700     0.94300
Al642      Al  0.28296639  0.93849314  0.59545265     1.55600
O643        O  0.34302056  0.98371701  0.52447516    -0.77500
C644        C  0.28751044  0.86783594  0.59449521     0.98400
C645        C  0.34438875  0.95844248  0.63794426     0.93300
O646        O  0.36366211  0.95019965  0.61303673    -0.82800
O647        O  0.37061207  0.56440600  0.79532614    -0.82300
C648        C  0.01296369  0.57970425  0.78276048     0.97100
O649        O  0.48347079  0.57533983  0.76180662    -0.71400
O650        O  0.41764144  0.56339006  0.74404797    -0.75000
Al651      Al  0.44146816  0.59285911  0.77884799     1.49000
C652        C  0.41109385  0.53102704  0.74405253     0.92400
O653        O  0.43242222  0.99830480  0.83669952    -0.81200
O654        O  0.44372836  0.54298345  0.88157348    -0.74700
Al655      Al  0.40527039  0.53240026  0.81487584     1.90100
O656        O  0.48561477  0.51558866  0.83000807    -0.73800
O657        O  0.46336440  0.60523004  0.85891547    -0.73700
O658        O  0.01115116  0.57737079  0.81557917    -0.79300
O659        O  0.46517089  0.62886945  0.80716602    -0.77500
O660        O  0.43994032  0.56190339  0.81230004    -1.13700
O661        O  0.39993164  0.61292970  0.79287418    -0.72800
C662        C  0.37188744  0.59686465  0.78958659     0.97900
C663        C  0.46530506  0.99473546  0.83737063     0.94300
Al664      Al  0.47328281  0.56039264  0.84334265     1.55600
O665        O  0.41526165  0.51348008  0.77117209    -0.77500
C666        C  0.46937236  0.63105192  0.83995318     0.98400
C667        C  0.41084826  0.54146072  0.88444644     0.93300
O668        O  0.39221411  0.54875666  0.85875134    -0.82800
O669        O  0.18320607  0.75408680  0.66622743    -0.82300
C670        C  0.21853962  0.61747506  0.65670153     0.97100
O671        O  0.21359813  0.64406999  0.63860431    -0.71400
O672        O  0.19413900  0.70697188  0.61853151    -0.75000
Al673      Al  0.22312423  0.68817467  0.65635227     1.49000
C674        C  0.16129068  0.70856064  0.61526592     0.92400
O675        O  0.11952238  0.68390198  0.70337966    -0.81200
O676        O  0.16623694  0.68170028  0.75450814    -0.74700
Al677      Al  0.15478903  0.71557329  0.68481420     1.90100
O678        O  0.14713791  0.63444192  0.70297050    -0.73800
O679        O  0.23093381  0.66857772  0.73704372    -0.73700
O680        O  0.21290028  0.61805381  0.68927775    -0.79300
O681        O  0.25910894  0.66992142  0.68775888    -0.77500
O682        O  0.18908929  0.68552099  0.68668909    -1.13700
O683        O  0.23542105  0.73246092  0.67173084    -0.72800
C684        C  0.21603424  0.75774121  0.66505862     0.97900
C685        C  0.11970373  0.65126555  0.70777730     0.94300
Al686      Al  0.18928382  0.65299441  0.71862556     1.55600
O687        O  0.14216609  0.70069683  0.64044219    -0.77500
C688        C  0.25858925  0.66500688  0.72038719     0.98400
C689        C  0.16011551  0.71415221  0.75543820     0.93300
O690        O  0.16447778  0.73256531  0.72892927    -0.82800
O691        O  0.49533622  0.83075797  0.93552924    -0.82300
C692        C  0.13483213  0.84382158  0.96138832     0.97100
O693        O  0.10717879  0.86032760  0.95691346    -0.71400
O694        O  0.04203420  0.87763716  0.94440938    -0.75000
Al695      Al  0.06552309  0.84179725  0.97255409     1.49000
C696        C  0.03750160  0.87947256  0.91174852     0.92400
O697        O  0.06193417  0.79088073  0.87091691    -0.81200
O698        O  0.07065274  0.74201386  0.91853477    -0.74700
Al699      Al  0.03245131  0.80932306  0.90898877     1.90100
O700        O  0.11346404  0.79427197  0.89438069    -0.73800
O701        O  0.08793342  0.76205388  0.98194951    -0.73700
O702        O  0.13518573  0.81101935  0.95738453    -0.79300
O703        O  0.08838586  0.81736692  0.50593908    -0.77500
O704        O  0.06580572  0.81017487  0.93987710    -1.13700
O705        O  0.02379038  0.82558184  0.99054509    -0.72800
C706        C  0.49546352  0.83527147  0.96828776     0.97900
C707        C  0.09475860  0.78719221  0.86873871     0.94300
Al708      Al  0.09946151  0.77948177  0.93826832     1.55600
O709        O  0.04354511  0.85363527  0.89299814    -0.77500
C710        C  0.09330117  0.78475082  0.50702370     0.98400
C711        C  0.03789771  0.73995092  0.91482302     0.93300
O712        O  0.01895629  0.76516631  0.92257849    -0.82800
C713        C  0.10852676  0.72243698  0.58042290    -0.21800
C714        C  0.14466345  0.72523645  0.58490544    -0.09800
C715        C  0.16300612  0.74901146  0.56427800     0.29100
C716        C  0.14535383  0.77036149  0.54091477    -0.21800
C717        C  0.10934267  0.76781035  0.53698329    -0.09800
C718        C  0.09110556  0.74307605  0.55625092     0.29100
F719        F  0.05653461  0.73882531  0.55154832    -0.20300
H720        H  0.09363473  0.70448119  0.59599063     0.17400
H721        H  0.16000254  0.78817572  0.52493108     0.17400
F722        F  0.19784843  0.75228827  0.56718427    -0.20300
C723        C  0.11203439  0.74902666  0.77963465    -0.21800
C724        C  0.14314698  0.73083492  0.78532031    -0.09800
C725        C  0.15817623  0.73149528  0.81821289     0.29100
C726        C  0.14273765  0.75096848  0.84463575    -0.21800
C727        C  0.11147032  0.76928898  0.83904115    -0.09800
C728        C  0.09583327  0.76734911  0.80636791     0.29100
F729        F  0.06523618  0.78342290  0.80009120    -0.20300
H730        H  0.10012546  0.74888081  0.75425055     0.17400
H731        H  0.15502498  0.75113663  0.86982480     0.17400
F732        F  0.18821868  0.71436918  0.82447256    -0.20300
C733        C  0.28127001  0.62243066  0.76252372    -0.21800
C734        C  0.28805547  0.64949907  0.73898356    -0.09800
C735        C  0.32226927  0.65974152  0.73319001     0.29100
C736        C  0.34914645  0.64334760  0.75111556    -0.21800
C737        C  0.34240922  0.61578579  0.77422578    -0.09800
C738        C  0.30815332  0.60534318  0.77961550     0.29100
F739        F  0.30066997  0.57867445  0.80122950    -0.20300
H740        H  0.25495195  0.61375229  0.76694975     0.17400
H741        H  0.37550359  0.65149480  0.74597569     0.17400
F742        F  0.32963183  0.68559756  0.71056246    -0.20300
C743        C  0.08595734  0.59729083  0.72004144    -0.21800
C744        C  0.09023325  0.63320429  0.72434645    -0.09800
C745        C  0.07032174  0.65024311  0.74959747     0.29100
C746        C  0.04727802  0.63169243  0.77036920    -0.21800
C747        C  0.04280529  0.59603249  0.76581260    -0.09800
C748        C  0.06181346  0.57896040  0.74005913     0.29100
F749        F  0.51868817  0.58016397  0.70430089    -0.20300
H750        H  0.10144342  0.58342806  0.70123736     0.17400
H751        H  0.03196532  0.64549979  0.78935922     0.17400
F752        F  0.07395571  0.68463111  0.75517658    -0.20300
C753        C  0.99427356  0.71912740  0.87258873    -0.21800
C754        C  0.02150041  0.71130060  0.89575814    -0.09800
C755        C  0.49541936  0.69434184  0.91015031     0.29100
C756        C  0.47723647  0.66899072  0.89171949    -0.21800
C757        C  0.48512989  0.66179478  0.85683446    -0.09800
C758        C  0.97800995  0.69319878  0.85340754     0.29100
F759        F  0.95161092  0.70148078  0.83174888    -0.20300
H760        H  0.98567776  0.74556584  0.86911772     0.17400
H761        H  0.45692636  0.65476037  0.90482912     0.17400
F762        F  0.48630314  0.70134092  0.94335213    -0.20300
C763        C  0.46804537  0.94846106  0.88197516    -0.21800
C764        C  0.48185980  0.96342509  0.85188146    -0.09800
C765        C  0.00993936  0.94192457  0.84192876     0.29100
C766        C  0.02924199  0.91763980  0.86056660    -0.21800
C767        C  0.02075126  0.90951275  0.89502971    -0.09800
C768        C  0.48717073  0.92433537  0.90111635     0.29100
F769        F  0.47297154  0.91053670  0.93013202    -0.20300
H770        H  0.44291759  0.95648479  0.89145159     0.17400
H771        H  0.05086100  0.90496070  0.84798237     0.17400
F772        F  0.01973817  0.95022203  0.80919682    -0.20300
C773        C  0.40870787  0.48356987  0.70029583    -0.21800
C774        C  0.39411918  0.51363433  0.71442565    -0.09800
C775        C  0.35999450  0.52251580  0.70518125     0.29100
C776        C  0.34062619  0.99586087  0.69087710    -0.21800
C777        C  0.36074583  0.97559676  0.66838853    -0.09800
C778        C  0.39725810  0.97694072  0.67170865     0.29100
F779        F  0.41810522  0.95766561  0.65102369    -0.20300
H780        H  0.43435257  0.47538962  0.70817951     0.17400
H781        H  0.31264977  0.99555883  0.68906631     0.17400
F782        F  0.34438676  0.55043146  0.71961887    -0.20300
C783        C  0.35730980  0.52802061  0.91853105    -0.21800
C784        C  0.39362419  0.52561695  0.91510287    -0.09800
C785        C  0.41166541  0.50298121  0.93728306     0.29100
C786        C  0.39626531  0.98383763  0.96502890    -0.21800
C787        C  0.35995823  0.98396762  0.96748974    -0.09800
C788        C  0.34098328  0.00652361  0.94640198     0.29100
F789        F  0.30976066  0.01059170  0.45291481    -0.20300
H790        H  0.34259666  0.54505376  0.90180521     0.17400
H791        H  0.41140869  0.96772294  0.98230936     0.17400
F792        F  0.44660801  0.49987432  0.93531209    -0.20300
C793        C  0.28531022  0.82227014  0.64004332    -0.21800
C794        C  0.27028718  0.83805321  0.61101569    -0.09800
C795        C  0.23572471  0.83022750  0.60263050     0.29100
C796        C  0.21692994  0.80633509  0.62247462    -0.21800
C797        C  0.23255068  0.78909775  0.65041507    -0.09800
C798        C  0.26694383  0.79756114  0.65920264     0.29100
F799        F  0.28288154  0.78173843  0.68625123    -0.20300
H800        H  0.31135544  0.82910716  0.64783753     0.17400
H801        H  0.19058683  0.80027127  0.61510526     0.17400
F802        F  0.21973715  0.84655275  0.57595516    -0.20300
C803        C  0.21926142  0.57190330  0.61121937    -0.21800
C804        C  0.23537034  0.58782740  0.63950930    -0.09800
C805        C  0.27042236  0.58046984  0.64621301     0.29100
C806        C  0.28867583  0.55702661  0.62536194    -0.21800
C807        C  0.27199793  0.53940336  0.59834795    -0.09800
C808        C  0.23705125  0.54743806  0.59124330     0.29100
F809        F  0.21996046  0.53143804  0.56508339    -0.20300
H810        H  0.19278156  0.57841744  0.60464976     0.17400
H811        H  0.31555101  0.55168289  0.63119578     0.17400
F812        F  0.28733045  0.59675996  0.67228881    -0.20300
C813        C  0.41166740  0.84825648  0.51815651    -0.21800
C814        C  0.41709634  0.88171016  0.53195782    -0.09800
C815        C  0.44699944  0.89752403  0.02565323     0.29100
C816        C  0.47322117  0.88108145  0.00692731    -0.21800
C817        C  0.46631034  0.85154134  0.98676176    -0.09800
C818        C  0.43750353  0.83135969  0.49914851     0.29100
F819        F  0.43133623  0.79950579  0.48586333    -0.20300
H820        H  0.38682762  0.83556770  0.52085634     0.17400
H821        H  0.49910021  0.89186209  0.00767287     0.17400
F822        F  0.45455083  0.92657192  0.04378377    -0.20300
C823        C  0.15928519  0.89699143  0.98881100    -0.21800
C824        C  0.16458325  0.86302129  0.97623041    -0.09800
C825        C  0.16041558  0.90043137  0.48836160     0.29100
C826        C  0.18719155  0.91611258  0.50727396    -0.21800
C827        C  0.21886804  0.89923193  0.51162372    -0.09800
C828        C  0.18501488  0.91422979  0.00751215     0.29100
F829        F  0.17908949  0.94668451  0.01943500    -0.20300
H830        H  0.13472810  0.91000553  0.98510890     0.17400
H831        H  0.18328066  0.94157411  0.51823542     0.17400
F832        F  0.13015286  0.91797839  0.48503219    -0.20300
O833        O  0.88396056  0.43430011  0.05097938    -0.82300
C834        C  0.74320605  0.42188521  0.02873747     0.97100
O835        O  0.77106698  0.42626467  0.01259150    -0.71400
O836        O  0.83350258  0.43595219  0.49554035    -0.75000
Al837      Al  0.81236059  0.40833824  0.03080828     1.49000
C838        C  0.84104261  0.46803268  0.49584904     0.92400
O839        O  0.82339439  0.00344848  0.08736919    -0.81200
O840        O  0.80604941  0.45883177  0.13326244    -0.74700
Al841      Al  0.84899845  0.46691663  0.06945423     1.90100
O842        O  0.76849594  0.48617837  0.07845320    -0.73800
O843        O  0.78557263  0.39695371  0.11034136    -0.73700
O844        O  0.74275665  0.42520716  0.06146003    -0.79300
O845        O  0.78803370  0.37272035  0.05862457    -0.77500
O846        O  0.81336573  0.43876860  0.06451634    -1.13700
O847        O  0.85331004  0.38716109  0.04523925    -0.72800
C848        C  0.88200088  0.40224490  0.04359860     0.97900
C849        C  0.79075355  0.00897238  0.08635502     0.94300
Al850      Al  0.77829336  0.44163025  0.09374722     1.55600
O851        O  0.84279425  0.48678172  0.02619711    -0.77500
C852        C  0.78144438  0.37109066  0.09103951     0.98400
C853        C  0.83872022  0.45865429  0.13800117     0.93300
O854        O  0.85836127  0.44923262  0.11381238    -0.82800
O855        O  0.86796286  0.06307265  0.29737912    -0.82300
C856        C  0.50964301  0.07988995  0.27825333     0.97100
O857        O  0.97793887  0.08023509  0.26047349    -0.71400
O858        O  0.91270667  0.06546779  0.24588754    -0.75000
Al859      Al  0.93661912  0.09500213  0.28032951     1.49000
C860        C  0.90871856  0.03271709  0.24525100     0.92400
O861        O  0.92863035  0.49641480  0.33496831    -0.81200
O862        O  0.94481521  0.04350728  0.38121918    -0.74700
Al863      Al  0.90463121  0.03226887  0.31571536     1.90100
O864        O  0.98577979  0.01796532  0.32788703    -0.73800
O865        O  0.96188973  0.10618626  0.35898206    -0.73700
O866        O  0.51012125  0.07641477  0.31108863    -0.79300
O867        O  0.96027001  0.13089116  0.30779449    -0.77500
O868        O  0.93812287  0.06301709  0.31264342    -1.13700
O869        O  0.89554294  0.11245283  0.29811286    -0.72800
C870        C  0.86819331  0.09579182  0.29324831     0.97900
C871        C  0.96134166  0.49205247  0.33608627     0.94300
Al872      Al  0.97259502  0.06208234  0.34222958     1.55600
O873        O  0.91467944  0.01476009  0.27173456    -0.77500
C874        C  0.96601176  0.13244055  0.34023277     0.98400
C875        C  0.91204091  0.04163430  0.38503973     0.93300
O876        O  0.89224667  0.04773416  0.35993992    -0.82800
O877        O  0.68377983  0.25407514  0.16541274    -0.82300
C878        C  0.71934846  0.11781266  0.15802935     0.97100
O879        O  0.71395890  0.14403541  0.13952281    -0.71400
O880        O  0.69530875  0.20675730  0.11847464    -0.75000
Al881      Al  0.72381804  0.18823081  0.15657360     1.49000
C882        C  0.66252182  0.20789862  0.11506061     0.92400
O883        O  0.61976313  0.18344920  0.20280218    -0.81200
O884        O  0.66625877  0.18288727  0.25435205    -0.74700
Al885      Al  0.65517064  0.21559056  0.18424086     1.90100
O886        O  0.64870107  0.13461126  0.20407194    -0.73800
O887        O  0.73121548  0.17104596  0.23745555    -0.73700
O888        O  0.71417773  0.11892859  0.19068090    -0.79300
O889        O  0.75960605  0.17020474  0.18831730    -0.77500
O890        O  0.68962851  0.18594598  0.18678682    -1.13700
O891        O  0.73597855  0.23260082  0.17137833    -0.72800
C892        C  0.71664885  0.25759903  0.16347384     0.97900
C893        C  0.62083356  0.15086479  0.20782704     0.94300
Al894      Al  0.69007801  0.15412110  0.21933651     1.55600
O895        O  0.64317733  0.19985291  0.13997161    -0.77500
C896        C  0.75875800  0.16612823  0.22104346     0.98400
C897        C  0.66037073  0.21532564  0.25490823     0.93300
O898        O  0.66449191  0.23343959  0.22820241    -0.82800
O899        O  0.99192475  0.32771105  0.43664536    -0.82300
C900        C  0.63544098  0.34676396  0.45842693     0.97100
O901        O  0.60783339  0.36333125  0.45385808    -0.71400
O902        O  0.54199268  0.37913090  0.44042892    -0.75000
Al903      Al  0.56569194  0.34388901  0.46915210     1.49000
C904        C  0.53622581  0.38004010  0.40790224     0.92400
O905        O  0.56040497  0.29171352  0.36819734    -0.81200
O906        O  0.57283949  0.24426817  0.41452127    -0.74700
Al907      Al  0.53159106  0.30938792  0.40677273     1.90100
O908        O  0.61250532  0.29898221  0.38946740    -0.73800
O909        O  0.59146050  0.26428489  0.47738527    -0.73700
O910        O  0.63601358  0.31424526  0.45329014    -0.79300
O911        O  0.58589542  0.31647770  0.00887920    -0.77500
O912        O  0.56598930  0.31206557  0.43666622    -1.13700
O913        O  0.52412974  0.32774744  0.48767844    -0.72800
C914        C  0.99229093  0.33034475  0.46952712     0.97900
C915        C  0.59325001  0.29086575  0.36443183     0.94300
Al916      Al  0.60075784  0.28265961  0.43377694     1.55600
O917        O  0.54047925  0.35361831  0.38954205    -0.77500
C918        C  0.59188816  0.28408084  0.00933698     0.98400
C919        C  0.54009167  0.23996555  0.41358308     0.93300
O920        O  0.52025118  0.26450740  0.42169636    -0.82800
C921        C  0.65839337  0.25799639  0.07535851    -0.21800
C922        C  0.64624242  0.22525556  0.08534910    -0.09800
C923        C  0.61440743  0.21348771  0.07237332     0.29100
C924        C  0.59567199  0.23374228  0.04895288    -0.21800
C925        C  0.60756878  0.26667906  0.03932430    -0.09800
C926        C  0.63901965  0.27880631  0.05290170     0.29100
F927        F  0.65177427  0.31004449  0.04322596    -0.20300
H928        H  0.68232594  0.26797513  0.08594877     0.17400
H929        H  0.57196606  0.22359116  0.03797067     0.17400
F930        F  0.60151156  0.18239399  0.08237408    -0.20300
C931        C  0.60757116  0.23357983  0.28598398    -0.21800
C932        C  0.64388538  0.23226929  0.28464481    -0.09800
C933        C  0.66314783  0.25316667  0.30699250     0.29100
C934        C  0.64629279  0.27386380  0.33144072    -0.21800
C935        C  0.60981234  0.27462270  0.33369465    -0.09800
C936        C  0.59056233  0.25468849  0.31005913     0.29100
F937        F  0.55542406  0.25456602  0.31087381    -0.20300
H938        H  0.59234283  0.21868068  0.26778478     0.17400
H939        H  0.66196298  0.28883432  0.34916430     0.17400
F940        F  0.69822826  0.25369499  0.30502328    -0.20300
C941        C  0.77906060  0.12119576  0.26173894    -0.21800
C942        C  0.78710773  0.14934891  0.23991397    -0.09800
C943        C  0.82142318  0.15993489  0.23640736     0.29100
C944        C  0.84722383  0.14299796  0.25516060    -0.21800
C945        C  0.83933591  0.11454934  0.27680842    -0.09800
C946        C  0.80499606  0.10351543  0.27965628     0.29100
F947        F  0.79653556  0.07590293  0.29966094    -0.20300
H948        H  0.75256266  0.11233729  0.26426822     0.17400
H949        H  0.87372302  0.15159269  0.25187359     0.17400
F950        F  0.82988066  0.18677097  0.21536858    -0.20300
C951        C  0.59776464  0.11817062  0.25772495    -0.21800
C952        C  0.59213767  0.13214493  0.22454147    -0.09800
C953        C  0.56060362  0.12613376  0.20794419     0.29100
C954        C  0.53470680  0.10711612  0.22485104    -0.21800
C955        C  0.53969169  0.09418493  0.25881001    -0.09800
C956        C  0.57182313  0.09962972  0.27488517     0.29100
F957        F  0.99631400  0.13584994  0.22422297    -0.20300
H958        H  0.62230624  0.12219242  0.27068822     0.17400
H959        H  0.51021669  0.10357435  0.21169805     0.17400
F960        F  0.55501789  0.13829501  0.17544426    -0.20300
C961        C  0.48982167  0.20025042  0.40604305    -0.21800
C962        C  0.52415082  0.20902077  0.39759123    -0.09800
C963        C  0.99103706  0.19678733  0.40875989     0.29100
C964        C  0.97209931  0.17227985  0.39017221    -0.21800
C965        C  0.98202295  0.16289514  0.35649349    -0.09800
C966        C  0.47168531  0.17566313  0.38670722     0.29100
F967        F  0.43918860  0.16658624  0.39656134    -0.20300
H968        H  0.47688994  0.21274543  0.42754845     0.17400
H969        H  0.94968693  0.16039210  0.40215895     0.17400
F970        F  0.97977904  0.20656482  0.44057750    -0.20300
C971        C  0.96415432  0.44857588  0.38377854    -0.21800
C972        C  0.97707955  0.46097101  0.35207013    -0.09800
C973        C  0.46591561  0.43912948  0.37614220     0.29100
C974        C  0.48460526  0.41629359  0.39725145    -0.21800
C975        C  0.51981522  0.40987089  0.39096858    -0.09800
C976        C  0.98317701  0.42478226  0.40363926     0.29100
F977        F  0.96969661  0.41310343  0.43394162    -0.20300
H978        H  0.93982046  0.45824560  0.39374712     0.17400
H979        H  0.47123154  0.40253408  0.41774863     0.17400
F980        F  0.43185898  0.44444031  0.38291774    -0.20300
C981        C  0.90873023  0.98614936  0.20120316    -0.21800
C982        C  0.89237754  0.01493726  0.21593151    -0.09800
C983        C  0.85734259  0.02121470  0.20841027     0.29100
C984        C  0.83853381  0.50498427  0.18295046    -0.21800
C985        C  0.85477494  0.47599839  0.16819688    -0.09800
C986        C  0.88921406  0.46850801  0.17764064     0.29100
F987        F  0.90595776  0.44087345  0.16391869    -0.20300
H988        H  0.93519802  0.97991447  0.20809789     0.17400
H989        H  0.81220578  0.51152400  0.17593655     0.17400
F990        F  0.84027336  0.04779568  0.22369940    -0.20300
C991        C  0.90797582  0.99409114  0.42798457    -0.21800
C992        C  0.89611039  0.02633474  0.41616590    -0.09800
C993        C  0.86440254  0.03914967  0.42868075     0.29100
C994        C  0.89355933  0.48705797  0.46505828    -0.21800
C995        C  0.85726035  0.48523344  0.46609997    -0.09800
C996        C  0.83783905  0.50551136  0.44323280     0.29100
F997        F  0.81874524  0.46691953  0.92903565    -0.20300
H998        H  0.93176915  0.98323693  0.41783148     0.17400
H999        H  0.90886927  0.47272039  0.48370544     0.17400
F1000       F  0.85178979  0.06980240  0.41704525    -0.20300
C1001       C  0.72947802  0.34281360  0.11561776    -0.21800
C1002       C  0.76472907  0.34076246  0.10669208    -0.09800
C1003       C  0.78427424  0.31260911  0.11810062     0.29100
C1004       C  0.76864795  0.28665392  0.13794355    -0.21800
C1005       C  0.73309958  0.28817465  0.14671497    -0.09800
C1006       C  0.71363095  0.31669761  0.13521147     0.29100
F1007       F  0.67938473  0.31933054  0.14264254    -0.20300
H1008       H  0.71428874  0.36501797  0.10767146     0.17400
H1009       H  0.78446360  0.26494167  0.14593930     0.17400
F1010       F  0.81858985  0.31065429  0.11074330    -0.20300
C1011       C  0.72298052  0.07525046  0.11001467    -0.21800
C1012       C  0.73639399  0.08819748  0.14114507    -0.09800
C1013       C  0.76987997  0.07824184  0.15139149     0.29100
C1014       C  0.78925426  0.05534107  0.13101634    -0.21800
C1015       C  0.77494367  0.04055073  0.10112710    -0.09800
C1016       C  0.74166568  0.05111355  0.09054438     0.29100
F1017       F  0.72713833  0.03790045  0.06143343    -0.20300
H1018       H  0.69790827  0.08385083  0.10083093     0.17400
H1019       H  0.81501059  0.04818885  0.13928241     0.17400
F1020       F  0.78436819  0.09165867  0.18039613    -0.20300
C1021       C  0.90457755  0.35375103  0.00717047    -0.21800
C1022       C  0.91158564  0.38258272  0.02857644    -0.09800
C1023       C  0.94439039  0.38743502  0.53263984     0.29100
C1024       C  0.97071587  0.36917868  0.51584255    -0.21800
C1025       C  0.96316863  0.34575738  0.48887726    -0.09800
C1026       C  0.93103280  0.33685096  0.98895559     0.29100
F1027       F  0.92318924  0.30963148  0.96829836    -0.20300
H1028       H  0.87824570  0.34488785  0.00349037     0.17400
H1029       H  0.99729050  0.37437454  0.52311018     0.17400
F1030       F  0.95262912  0.41044918  0.55779558    -0.20300
C1031       C  0.67888243  0.39495832  0.46215551    -0.21800
C1032       C  0.66429986  0.36475025  0.47610781    -0.09800
C1033       C  0.69224358  0.37217202  0.96145663     0.29100
C1034       C  0.71846449  0.39156560  0.97724431    -0.21800
C1035       C  0.71313317  0.40750645  0.00974504    -0.09800
C1036       C  0.70303506  0.41428514  0.48127143     0.29100
F1037       F  0.71834282  0.44209379  0.46622461    -0.20300
H1038       H  0.67183789  0.40333058  0.43632763     0.17400
H1039       H  0.74347716  0.39285975  0.96462384     0.17400
F1040       F  0.69823555  0.35676996  0.93049033    -0.20300
O1041       O  0.88331093  0.43341462  0.54573325    -0.82300
C1042       C  0.74207518  0.41970424  0.53328875     0.97100
O1043       O  0.76870618  0.42488631  0.51541484    -0.71400
O1044       O  0.83658715  0.43829213  0.99712020    -0.75000
Al1045     Al  0.81109355  0.40651189  0.53085624     1.49000
C1046       C  0.84503340  0.47016256  0.99841792     0.92400
O1047       O  0.81925367  0.00700442  0.58450452    -0.81200
O1048       O  0.81234254  0.45643579  0.63335570    -0.74700
Al1049     Al  0.84968559  0.46584870  0.56629240     1.90100
O1050       O  0.76969883  0.48387548  0.58240739    -0.73800
O1051       O  0.79250615  0.39502930  0.61165165    -0.73700
O1052       O  0.74392174  0.42183366  0.56618183    -0.79300
O1053       O  0.78858252  0.37063969  0.56045332    -0.77500
O1054       O  0.81436871  0.43715430  0.56427704    -1.13700
O1055       O  0.85280808  0.38565694  0.54277239    -0.72800
C1056       C  0.88113151  0.40115974  0.53938780     0.97900
C1057       C  0.78658526  0.01109688  0.58739071     0.94300
Al1058     Al  0.78187394  0.43918015  0.59610783     1.55600
O1059       O  0.83922195  0.48524264  0.52329866    -0.77500
C1060       C  0.78609773  0.36890265  0.59348975     0.98400
C1061       C  0.84527201  0.45652441  0.63581436     0.93300
O1062       O  0.86331362  0.44883306  0.60984152    -0.82800
O1063       O  0.87051348  0.06224269  0.79709067    -0.82300
C1064       C  0.50659331  0.08762242  0.78124357     0.97100
O1065       O  0.98500904  0.06969858  0.76406398    -0.71400
O1066       O  0.91999658  0.05811285  0.74546465    -0.75000
Al1067     Al  0.94267177  0.08848716  0.77923851     1.49000
C1068       C  0.91140569  0.02638707  0.74697790     0.92400
O1069       O  0.93448338  0.49388768  0.83616247    -0.81200
O1070       O  0.94349916  0.04176908  0.88376124    -0.74700
Al1071     Al  0.90476914  0.03027542  0.81751502     1.90100
O1072       O  0.98550381  0.01300096  0.83357087    -0.73800
O1073       O  0.96250068  0.10340373  0.85937213    -0.73700
O1074       O  0.50732786  0.08304578  0.81392369    -0.79300
O1075       O  0.96532278  0.12539838  0.80681851    -0.77500
O1076       O  0.94002252  0.05897025  0.81390009    -1.13700
O1077       O  0.90082195  0.10973768  0.79077954    -0.72800
C1078       C  0.87223409  0.09430295  0.78951989     0.97900
C1079       C  0.96716862  0.49050976  0.83949029     0.94300
Al1080     Al  0.97305893  0.05828905  0.84547523     1.55600
O1081       O  0.91360120  0.00979509  0.77483476    -0.77500
C1082       C  0.96794645  0.12878747  0.83964212     0.98400
C1083       C  0.91067347  0.04020697  0.88630402     0.93300
O1084       O  0.89228394  0.04818301  0.86072249    -0.82800
O1085       O  0.68432416  0.25873222  0.67250203    -0.82300
C1086       C  0.71658661  0.12139242  0.65923921     0.97100
O1087       O  0.71249716  0.14864217  0.64198720    -0.71400
O1088       O  0.69387024  0.21165342  0.62337531    -0.75000
Al1089     Al  0.72277597  0.19204544  0.66085531     1.49000
C1090       C  0.66109804  0.21508821  0.62071503     0.92400
O1091       O  0.61884510  0.18969138  0.70810841    -0.81200
O1092       O  0.66456527  0.18381719  0.75835919    -0.74700
Al1093     Al  0.65538314  0.22099314  0.69064777     1.90100
O1094       O  0.64530062  0.13980511  0.70429358    -0.73800
O1095       O  0.72964047  0.16860317  0.74142694    -0.73700
O1096       O  0.71030542  0.12122761  0.69165811    -0.79300
O1097       O  0.75818266  0.17241737  0.69231570    -0.77500
O1098       O  0.68868063  0.18958187  0.69102028    -1.13700
O1099       O  0.73610955  0.23597177  0.67688283    -0.72800
C1100       C  0.71702533  0.26133285  0.66983544     0.97900
C1101       C  0.61823806  0.15679572  0.71025584     0.94300
Al1102     Al  0.68746662  0.15580622  0.72167614     1.55600
O1103       O  0.64160884  0.20885798  0.64606507    -0.77500
C1104       C  0.75740960  0.16572184  0.72468316     0.98400
C1105       C  0.66083831  0.21654756  0.76087332     0.93300
O1106       O  0.66689749  0.23581379  0.73533666    -0.82800
O1107       O  0.99346638  0.32728049  0.94045059    -0.82300
C1108       C  0.63117489  0.34957016  0.96224502     0.97100
O1109       O  0.60293164  0.36529729  0.95911306    -0.71400
O1110       O  0.53759320  0.37998244  0.94548097    -0.75000
Al1111     Al  0.56182260  0.34502735  0.97396719     1.49000
C1112       C  0.53288764  0.38141060  0.91281696     0.92400
O1113       O  0.55865217  0.29300954  0.87248708    -0.81200
O1114       O  0.57033855  0.24558814  0.91968512    -0.74700
Al1115     Al  0.52934112  0.31087685  0.91076018     1.90100
O1116       O  0.61043975  0.30014592  0.89438632    -0.73800
O1117       O  0.58826123  0.26627397  0.98243743    -0.73700
O1118       O  0.63282367  0.31701447  0.95729293    -0.79300
O1119       O  0.58871421  0.31436357  0.50411959    -0.77500
O1120       O  0.56319159  0.31356889  0.94110540    -1.13700
O1121       O  0.52050532  0.32744068  0.99181294    -0.72800
C1122       C  0.99427935  0.33160172  0.97326218     0.97900
C1123       C  0.59154374  0.29209210  0.86915755     0.94300
Al1124     Al  0.59807083  0.28437543  0.93866123     1.55600
O1125       O  0.53837578  0.35541645  0.89405032    -0.77500
C1126       C  0.59512282  0.28193704  0.50444901     0.98400
C1127       C  0.53754453  0.24155926  0.91843886     0.93300
O1128       O  0.51785481  0.26638638  0.92571185    -0.82800
C1129       C  0.62552188  0.26211323  0.59580692    -0.21800
C1130       C  0.64520790  0.23192478  0.59049117    -0.09800
C1131       C  0.64790385  0.21817417  0.55722267     0.29100
C1132       C  0.63055128  0.23415317  0.52972194    -0.21800
C1133       C  0.61082418  0.26453880  0.53485300    -0.09800
C1134       C  0.60876774  0.27857324  0.56823321     0.29100
F1135       F  0.59051010  0.30794450  0.57426577    -0.20300
H1136       H  0.62335465  0.27311429  0.62149848     0.17400
H1137       H  0.63313225  0.22300033  0.50415136     0.17400
F1138       F  0.66647019  0.18893732  0.55152934    -0.20300
C1139       C  0.66169137  0.25978073  0.80841558    -0.21800
C1140       C  0.64447325  0.23299675  0.79116844    -0.09800
C1141       C  0.60886281  0.22827858  0.79717429     0.29100
C1142       C  0.59097848  0.24986660  0.82020371    -0.21800
C1143       C  0.60849185  0.27566586  0.83878163    -0.09800
C1144       C  0.64418935  0.28047311  0.83248275     0.29100
F1145       F  0.66224372  0.30522457  0.84958279    -0.20300
H1146       H  0.68873966  0.26485594  0.80296416     0.17400
H1147       H  0.56363483  0.24543600  0.82455013     0.17400
F1148       F  0.59105888  0.20358252  0.77980885    -0.20300
C1149       C  0.78086472  0.11902796  0.76214352    -0.21800
C1150       C  0.78696206  0.14918248  0.74251961    -0.09800
C1151       C  0.82074386  0.16182592  0.73982824     0.29100
C1152       C  0.84789470  0.14454781  0.75657616    -0.21800
C1153       C  0.84206517  0.11375955  0.77553609    -0.09800
C1154       C  0.80810135  0.10112540  0.77803968     0.29100
F1155       F  0.80120792  0.07139365  0.79542799    -0.20300
H1156       H  0.75488627  0.10863373  0.76423389     0.17400
H1157       H  0.87383295  0.15483366  0.75374314     0.17400
F1158       F  0.82740776  0.19097295  0.72140600    -0.20300
C1159       C  0.59426337  0.10578779  0.74164269    -0.21800
C1160       C  0.58834802  0.13797010  0.72524006    -0.09800
C1161       C  0.55526869  0.15280057  0.72727361     0.29100
C1162       C  0.52897320  0.13582105  0.74551123    -0.21800
C1163       C  0.53534937  0.10426652  0.76263048    -0.09800
C1164       C  0.56814484  0.08927513  0.76052485     0.29100
F1165       F  0.02976976  0.05893538  0.71069565    -0.20300
H1166       H  0.61962037  0.09383855  0.74094789     0.17400
H1167       H  0.50358273  0.14767998  0.74685568     0.17400
F1168       F  0.54843633  0.18372196  0.71206360    -0.20300
C1169       C  0.48575660  0.20442195  0.90943340    -0.21800
C1170       C  0.52111450  0.21066469  0.90296966    -0.09800
C1171       C  0.98805080  0.19434986  0.90890155     0.29100
C1172       C  0.97056248  0.16922752  0.88963597    -0.21800
C1173       C  0.98150255  0.16057438  0.85598430    -0.09800
C1174       C  0.46709385  0.18088904  0.88936773     0.29100
F1175       F  0.43342226  0.17447023  0.89714406    -0.20300
H1176       H  0.47234813  0.21833017  0.92974390     0.17400
H1177       H  0.94861784  0.15611567  0.90119042     0.17400
F1178       F  0.97583150  0.20328802  0.94060503    -0.20300
C1179       C  0.97629504  0.45458571  0.89173541    -0.21800
C1180       C  0.98254864  0.46010870  0.85631591    -0.09800
C1181       C  0.51723205  0.45264072  0.84855142     0.29100
C1182       C  0.53423815  0.42813921  0.86901692    -0.21800
C1183       C  0.51683234  0.41151039  0.89609235    -0.09800
C1184       C  0.99560694  0.43016845  0.91036957     0.29100
F1185       F  0.98840024  0.42497606  0.94438446    -0.20300
H1186       H  0.95707376  0.46994818  0.90519340     0.17400
H1187       H  0.56104665  0.42189847  0.86357366     0.17400
F1188       F  0.53545056  0.46914537  0.82341409    -0.20300
C1189       C  0.91208705  0.00306285  0.68695891    -0.21800
C1190       C  0.89439773  0.00912455  0.71778825    -0.09800
C1191       C  0.86021945  0.99699077  0.72167216     0.29100
C1192       C  0.84509221  0.49518265  0.68731967    -0.21800
C1193       C  0.86300587  0.47161659  0.66633094    -0.09800
C1194       C  0.89911946  0.46784475  0.67101147     0.29100
F1195       F  0.91751059  0.44500674  0.65168439    -0.20300
H1196       H  0.93851267  0.01192321  0.68383105     0.17400
H1197       H  0.81742946  0.49869722  0.68439333     0.17400
F1198       F  0.84252598  0.00266713  0.75151418    -0.20300
C1199       C  0.86183954  0.00573338  0.91075061    -0.21800
C1200       C  0.89370613  0.02291680  0.91605251    -0.09800
C1201       C  0.91029644  0.01946661  0.94814047     0.29100
C1202       C  0.89032182  0.50911075  0.97488812    -0.21800
C1203       C  0.86099561  0.48826856  0.96887285    -0.09800
C1204       C  0.84724283  0.48636139  0.93548950     0.29100
F1205       F  0.80274482  0.50581903  0.44513657    -0.20300
H1206       H  0.84877486  0.00726245  0.88599372     0.17400
H1207       H  0.90130011  0.51089641  0.00063520     0.17400
F1208       F  0.94114120  0.03510080  0.95420726    -0.20300
C1209       C  0.77442150  0.33711122  0.64848948    -0.21800
C1210       C  0.77148720  0.33863274  0.61203021    -0.09800
C1211       C  0.74976602  0.31483131  0.59534797     0.29100
C1212       C  0.73036132  0.29127644  0.61490712    -0.21800
C1213       C  0.73287638  0.29043431  0.65123445    -0.09800
C1214       C  0.75559831  0.31304281  0.66787542     0.29100
F1215       F  0.75930366  0.31206441  0.70281149    -0.20300
H1216       H  0.79091077  0.35512012  0.66219760     0.17400
H1217       H  0.71388825  0.27306253  0.60151592     0.17400
F1218       F  0.74655102  0.31481008  0.56036854    -0.20300
C1219       C  0.72693497  0.08630482  0.60585668    -0.21800
C1220       C  0.73287276  0.09158445  0.64144183    -0.09800
C1221       C  0.75875462  0.07199967  0.65796043     0.29100
C1222       C  0.77811740  0.04772293  0.63922422    -0.21800
C1223       C  0.77165845  0.04205089  0.60390189    -0.09800
C1224       C  0.74561194  0.06127879  0.58740934     0.29100
F1225       F  0.73821420  0.05573510  0.55351921    -0.20300
H1226       H  0.70768434  0.10158479  0.59233675     0.17400
H1227       H  0.79737529  0.03235818  0.65264584     0.17400
F1228       F  0.76613786  0.07708672  0.69191025    -0.20300
C1229       C  0.90222890  0.35759470  0.49717556    -0.21800
C1230       C  0.90987254  0.38170476  0.52348757    -0.09800
C1231       C  0.94604482  0.39337391  0.03223169     0.29100
C1232       C  0.97257832  0.37583934  0.01471797    -0.21800
C1233       C  0.96530098  0.34785364  0.99246348    -0.09800
C1234       C  0.92863855  0.34015105  0.47959916     0.29100
F1235       F  0.92046992  0.31792249  0.45371902    -0.20300
H1236       H  0.87566594  0.35305983  0.48941327     0.17400
H1237       H  0.99895514  0.38485365  0.01773917     0.17400
F1238       F  0.95409810  0.42087222  0.05245338    -0.20300
C1239       C  0.65410973  0.38618135  0.00917674    -0.21800
C1240       C  0.66000926  0.36908230  0.97759068    -0.09800
C1241       C  0.67280092  0.35538722  0.51029619     0.29100
C1242       C  0.69558258  0.37554081  0.52991618    -0.21800
C1243       C  0.71150156  0.40478596  0.51553636    -0.09800
C1244       C  0.68042730  0.40486967  0.02538084     0.29100
F1245       F  0.67403313  0.41965478  0.05658947    -0.20300
H1246       H  0.62913242  0.38425126  0.02183253     0.17400
H1247       H  0.70209554  0.36727065  0.55591094     0.17400
F1248       F  0.65841798  0.32710355  0.52517320    -0.20300
O1249       O  0.88546167  0.93062180  0.05171914    -0.82300
C1250       C  0.74522479  0.91819437  0.02921794     0.97100
O1251       O  0.77320291  0.92185860  0.01323364    -0.71400
O1252       O  0.83275113  0.93816673  0.49348201    -0.75000
Al1253     Al  0.81404574  0.90438223  0.03228107     1.49000
C1254       C  0.83935770  0.97044906  0.49339841     0.92400
O1255       O  0.82084693  0.50601119  0.08790313    -0.81200
O1256       O  0.80758587  0.95735272  0.13321207    -0.74700
Al1257     Al  0.85084072  0.96369735  0.06955214     1.90100
O1258       O  0.77046387  0.98498940  0.07785875    -0.73800
O1259       O  0.78680562  0.89623865  0.11152949    -0.73700
O1260       O  0.74403536  0.92317927  0.06170358    -0.79300
O1261       O  0.78923386  0.86990470  0.06104420    -0.77500
O1262       O  0.81493510  0.93597143  0.06501956    -1.13700
O1263       O  0.85477802  0.88333644  0.04748635    -0.72800
C1264       C  0.88334939  0.89848214  0.04501015     0.97900
C1265       C  0.78802944  0.51057028  0.08724926     0.94300
Al1266     Al  0.77973206  0.94019368  0.09389871     1.55600
O1267       O  0.84466339  0.98256190  0.02587156    -0.77500
C1268       C  0.78194344  0.86978932  0.09334831     0.98400
C1269       C  0.84017629  0.95601072  0.13835928     0.93300
O1270       O  0.85992301  0.94662887  0.11421530    -0.82800
O1271       O  0.86570674  0.56744685  0.29754505    -0.82300
C1272       C  0.50635123  0.58121270  0.27585018     0.97100
O1273       O  0.97717139  0.58120736  0.26267564    -0.71400
O1274       O  0.91192652  0.56870193  0.24629067    -0.75000
Al1275     Al  0.93587413  0.59716840  0.28166104     1.49000
C1276       C  0.90653201  0.53614784  0.24531849     0.92400
O1277       O  0.93430937  0.99504059  0.33463145    -0.81200
O1278       O  0.94080442  0.54368887  0.38193825    -0.74700
Al1279     Al  0.90092908  0.53522121  0.31600664     1.90100
O1280       O  0.98123674  0.51665215  0.32840074    -0.73800
O1281       O  0.96171660  0.60583047  0.36127547    -0.73700
O1282       O  0.50828487  0.57544648  0.30829613    -0.79300
O1283       O  0.96003036  0.63186092  0.31060259    -0.77500
O1284       O  0.93563205  0.56474646  0.31374262    -1.13700
O1285       O  0.89450712  0.61620643  0.29767371    -0.72800
C1286       C  0.86669880  0.60009297  0.29314280     0.97900
C1287       C  0.96722117  0.99267260  0.33642167     0.94300
Al1288     Al  0.96997304  0.56149912  0.34361723     1.55600
O1289       O  0.91077795  0.51782226  0.27190061    -0.77500
C1290       C  0.96630478  0.63237599  0.34303210     0.98400
C1291       C  0.90791457  0.54273247  0.38549720     0.93300
O1292       O  0.88874200  0.55053196  0.36032222    -0.82800
O1293       O  0.67909887  0.75491627  0.16408965    -0.82300
C1294       C  0.71721195  0.61944184  0.15873741     0.97100
O1295       O  0.71197322  0.64528342  0.13968836    -0.71400
O1296       O  0.69250263  0.70755712  0.11736271    -0.75000
Al1297     Al  0.72059166  0.68968930  0.15644476     1.49000
C1298       C  0.65975672  0.70867930  0.11319831     0.92400
O1299       O  0.61580743  0.68356746  0.20019179    -0.81200
O1300       O  0.66092709  0.68398772  0.25273299    -0.74700
Al1301     Al  0.65088814  0.71624988  0.18234227     1.90100
O1302       O  0.64576204  0.63557176  0.20166957    -0.73800
O1303       O  0.72670872  0.67297740  0.23792091    -0.73700
O1304       O  0.71137280  0.62078016  0.19117256    -0.79300
O1305       O  0.75604572  0.67272029  0.18931514    -0.77500
O1306       O  0.68587692  0.68719820  0.18585808    -1.13700
O1307       O  0.73155919  0.73401588  0.17120077    -0.72800
C1308       C  0.71191481  0.75844179  0.16267049     0.97900
C1309       C  0.61739616  0.65095060  0.20499403     0.94300
Al1310     Al  0.68610488  0.65557678  0.21857104     1.55600
O1311       O  0.63999830  0.70035879  0.13771915    -0.77500
C1312       C  0.75482099  0.66890313  0.22210717     0.98400
C1313       C  0.65492571  0.71637666  0.25305566     0.93300
O1314       O  0.65901224  0.73439036  0.22630334    -0.82800
O1315       O  0.99395518  0.82877688  0.44232599    -0.82300
C1316       C  0.63602741  0.84523190  0.45610810     0.97100
O1317       O  0.60836033  0.86184000  0.45258386    -0.71400
O1318       O  0.54245613  0.87888434  0.44231560    -0.75000
Al1319     Al  0.56687473  0.84265621  0.46948526     1.49000
C1320       C  0.53545918  0.88045218  0.41002956     0.92400
O1321       O  0.55718173  0.79260631  0.36795243    -0.81200
O1322       O  0.57106132  0.74403850  0.41239297    -0.74700
Al1323     Al  0.53002435  0.80957135  0.40786616     1.90100
O1324       O  0.61002265  0.79963834  0.38740388    -0.73800
O1325       O  0.59253968  0.76246821  0.47475325    -0.73700
O1326       O  0.63638537  0.81279496  0.45052104    -0.79300
O1327       O  0.58742649  0.81772183  0.00354296    -0.77500
O1328       O  0.56551064  0.81136071  0.43651905    -1.13700
O1329       O  0.52594709  0.82692838  0.48955459    -0.72800
C1330       C  0.99525768  0.83475085  0.47470098     0.97900
C1331       C  0.58985415  0.79193939  0.36300727     0.94300
Al1332     Al  0.60005881  0.78194066  0.43148652     1.55600
O1333       O  0.53860817  0.85417973  0.39121015    -0.77500
C1334       C  0.59175452  0.78503234  0.00484191     0.98400
C1335       C  0.53825850  0.73970411  0.41281033     0.93300
O1336       O  0.51881275  0.76422482  0.42201396    -0.82800
C1337       C  0.65768511  0.75774928  0.07149450    -0.21800
C1338       C  0.64393550  0.72609982  0.08298550    -0.09800
C1339       C  0.61135822  0.71561864  0.07056170     0.29100
C1340       C  0.59355571  0.73586777  0.04633398    -0.21800
C1341       C  0.60708202  0.76767621  0.03521155    -0.09800
C1342       C  0.63928668  0.77858754  0.04813822     0.29100
F1343       F  0.65361531  0.80868162  0.03710519    -0.20300
H1344       H  0.68213051  0.76697444  0.08160070     0.17400
H1345       H  0.56921620  0.72659666  0.03597880     0.17400
F1346       F  0.59674988  0.68576123  0.08188346    -0.20300
C1347       C  0.60294357  0.73207940  0.28674427    -0.21800
C1348       C  0.63904626  0.73351484  0.28285907    -0.09800
C1349       C  0.65809989  0.75720520  0.30241837     0.29100
C1350       C  0.64144637  0.77794377  0.32687605    -0.21800
C1351       C  0.60531430  0.77597765  0.33174581    -0.09800
C1352       C  0.58606262  0.75330100  0.31076567     0.29100
F1353       F  0.55116751  0.75080862  0.31408265    -0.20300
H1354       H  0.58774003  0.71504527  0.27051348     0.17400
H1355       H  0.65702492  0.79506666  0.34261626     0.17400
F1356       F  0.69280489  0.76027562  0.29778307    -0.20300
C1357       C  0.77657900  0.62944571  0.26797822    -0.21800
C1358       C  0.78396142  0.65385158  0.24176656    -0.09800
C1359       C  0.81850866  0.66092488  0.23352436     0.29100
C1360       C  0.84507563  0.64415147  0.25155696    -0.21800
C1361       C  0.83765951  0.61919309  0.27722636    -0.09800
C1362       C  0.80312346  0.61180367  0.28515116     0.29100
F1363       F  0.79507237  0.58768544  0.30940490    -0.20300
H1364       H  0.75001757  0.62303075  0.27434327     0.17400
H1365       H  0.87165218  0.64981555  0.24455255     0.17400
F1366       F  0.82653969  0.68388740  0.20815687    -0.20300
C1367       C  0.55537849  0.64666741  0.22270998    -0.21800
C1368       C  0.58791838  0.63112301  0.21946256    -0.09800
C1369       C  0.59330223  0.59804707  0.23455435     0.29100
C1370       C  0.56698853  0.58182296  0.25341251    -0.21800
C1371       C  0.53477641  0.59769925  0.25674614    -0.09800
C1372       C  0.52893887  0.63002171  0.24083672     0.29100
F1373       F  0.07385235  0.55671290  0.27711435    -0.20300
H1374       H  0.55060466  0.67209281  0.21192718     0.17400
H1375       H  0.57169872  0.55685153  0.26524438     0.17400
F1376       F  0.62436979  0.58175743  0.23237938    -0.20300
C1377       C  0.53740738  0.69230427  0.36875637    -0.21800
C1378       C  0.52182719  0.70856982  0.39731810    -0.09800
C1379       C  0.03773298  0.68757748  0.37990421     0.29100
C1380       C  0.01989959  0.66360892  0.35930022    -0.21800
C1381       C  0.98354381  0.66191512  0.35976918    -0.09800
C1382       C  0.51925585  0.66766443  0.34926894     0.29100
F1383       F  0.53523014  0.65244059  0.32195753    -0.20300
H1384       H  0.56326443  0.69957206  0.36072318     0.17400
H1385       H  0.03455629  0.64570354  0.34347738     0.17400
F1386       F  0.07282671  0.68841215  0.37845183    -0.20300
C1387       C  0.01598890  0.96922687  0.37148471    -0.21800
C1388       C  0.98441275  0.96329762  0.35396217    -0.09800
C1389       C  0.51420477  0.94777240  0.34258268     0.29100
C1390       C  0.53261769  0.92340452  0.36214139    -0.21800
C1391       C  0.51948083  0.91113293  0.39376155    -0.09800
C1392       C  0.03177811  0.94318421  0.39105198     0.29100
F1393       F  0.06224563  0.94958888  0.40730441    -0.20300
H1394       H  0.02823237  0.99439719  0.37064288     0.17400
H1395       H  0.55715916  0.91384656  0.35247434     0.17400
F1396       F  0.52843336  0.96010857  0.31288369    -0.20300
C1397       C  0.90674332  0.48945223  0.20136749    -0.21800
C1398       C  0.89088679  0.51900326  0.21513558    -0.09800
C1399       C  0.85653900  0.52662247  0.20579721     0.29100
C1400       C  0.83925508  0.99930577  0.18600191    -0.21800
C1401       C  0.85621777  0.97190225  0.16928999    -0.09800
C1402       C  0.89113013  0.96516560  0.17758965     0.29100
F1403       F  0.90831562  0.93839090  0.16274078    -0.20300
H1404       H  0.93269670  0.48240369  0.20934820     0.17400
H1405       H  0.81227501  0.00462363  0.18065932     0.17400
F1406       F  0.83992485  0.55413136  0.21992946    -0.20300
C1407       C  0.85463886  0.52589055  0.41838685    -0.21800
C1408       C  0.89116698  0.52695655  0.41637782    -0.09800
C1409       C  0.91046340  0.50783510  0.44064328     0.29100
C1410       C  0.84523426  0.02021347  0.45292194    -0.21800
C1411       C  0.85652519  0.98749448  0.46388602    -0.09800
C1412       C  0.88823543  0.97464358  0.45141397     0.29100
F1413       F  0.81617292  0.96951175  0.93106705    -0.20300
H1414       H  0.83893072  0.54035745  0.40020999     0.17400
H1415       H  0.82144084  0.03101899  0.46310615     0.17400
F1416       F  0.94559520  0.50839899  0.44030736    -0.20300
C1417       C  0.74033633  0.84815797  0.13733271    -0.21800
C1418       C  0.76373681  0.84081127  0.11014005    -0.09800
C1419       C  0.76846276  0.80655804  0.09969996     0.29100
C1420       C  0.75104755  0.78013001  0.11711194    -0.21800
C1421       C  0.72807858  0.78753547  0.14451098    -0.09800
C1422       C  0.72232985  0.82174725  0.15418712     0.29100
F1423       F  0.70043693  0.82946305  0.18056809    -0.20300
H1424       H  0.73579235  0.87455596  0.14547230     0.17400
H1425       H  0.75547554  0.75365526  0.10915190     0.17400
F1426       F  0.79056196  0.79856081  0.07357497    -0.20300
C1427       C  0.71731803  0.57094623  0.11741150    -0.21800
C1428       C  0.73456140  0.58984837  0.14284269    -0.09800
C1429       C  0.77044065  0.58547196  0.14721296     0.29100
C1430       C  0.78860781  0.56163985  0.12686365    -0.21800
C1431       C  0.77111284  0.54143751  0.10232362    -0.09800
C1432       C  0.73516568  0.54668172  0.09757158     0.29100
F1433       F  0.71699028  0.52798994  0.07406202    -0.20300
H1434       H  0.68997763  0.57520189  0.11275954     0.17400
H1435       H  0.81608586  0.55813350  0.13117768     0.17400
F1436       F  0.78805604  0.60500471  0.17043173    -0.20300
C1437       C  0.90533834  0.85586724  0.00193758    -0.21800
C1438       C  0.91243257  0.87912746  0.02919772    -0.09800
C1439       C  0.90384746  0.85557773  0.50307954     0.29100
C1440       C  0.93176618  0.83907979  0.48696727    -0.21800
C1441       C  0.96559640  0.85003017  0.49338435    -0.09800
C1442       C  0.93213818  0.83942562  0.98380785     0.29100
F1443       F  0.92437820  0.81801046  0.95712915    -0.20300
H1444       H  0.87889470  0.85134715  0.99378878     0.17400
H1445       H  0.92695440  0.81789115  0.46932220     0.17400
F1446       F  0.87139807  0.84429546  0.49573966    -0.20300
C1447       C  0.68066620  0.89218052  0.45786875    -0.21800
C1448       C  0.66510365  0.86321767  0.47329181    -0.09800
C1449       C  0.69630589  0.85112184  0.97833199     0.29100
C1450       C  0.72227639  0.86830195  0.99671729    -0.21800
C1451       C  0.71660505  0.90145499  0.01056237    -0.09800
C1452       C  0.70391831  0.91280762  0.47668450     0.29100
F1453       F  0.72008628  0.93940690  0.46039472    -0.20300
H1454       H  0.67485396  0.89873917  0.43122094     0.17400
H1455       H  0.74686336  0.85539655  0.00069076     0.17400
F1456       F  0.70248644  0.81866915  0.96653919    -0.20300
O1457       O  0.88082386  0.93668892  0.54356592    -0.82300
C1458       C  0.74042020  0.92179744  0.52998840     0.97100
O1459       O  0.76727690  0.92716420  0.51241030    -0.71400
O1460       O  0.83858981  0.93329068  0.99790106    -0.75000
Al1461     Al  0.80944966  0.90898566  0.52847097     1.49000
C1462       C  0.84697967  0.96520715  0.99852126     0.92400
O1463       O  0.82267106  0.50433399  0.58690466    -0.81200
O1464       O  0.80967199  0.95808928  0.63134352    -0.74700
Al1465     Al  0.84646812  0.96889163  0.56365191     1.90100
O1466       O  0.76627534  0.98645060  0.58111064    -0.73800
O1467       O  0.78941779  0.89629074  0.60879539    -0.73700
O1468       O  0.74164409  0.92421944  0.56294581    -0.79300
O1469       O  0.78648307  0.87305583  0.55701770    -0.77500
O1470       O  0.81166806  0.93972483  0.56189249    -1.13700
O1471       O  0.85107094  0.88846259  0.54169071    -0.72800
C1472       C  0.87935510  0.90411732  0.53854398     0.97900
C1473       C  0.78990248  0.50853141  0.58897187     0.94300
Al1474     Al  0.77901520  0.94117746  0.59375522     1.55600
O1475       O  0.83544168  0.98801833  0.52044048    -0.77500
C1476       C  0.78349888  0.87050335  0.58986545     0.98400
C1477       C  0.84267865  0.95913684  0.63300726     0.93300
O1478       O  0.86026427  0.95199125  0.60667679    -0.82800
O1479       O  0.87245261  0.56310370  0.79393617    -0.82300
C1480       C  0.51071242  0.58014155  0.77891452     0.97100
O1481       O  0.98658323  0.57451882  0.76449054    -0.71400
O1482       O  0.92172354  0.56224906  0.74449388    -0.75000
Al1483     Al  0.94374028  0.59197123  0.77972476     1.49000
C1484       C  0.91561426  0.52987743  0.74455154     0.92400
O1485       O  0.93253362  0.99236925  0.83843017    -0.81200
O1486       O  0.94298863  0.54309144  0.88272337    -0.74700
Al1487     Al  0.90695798  0.53144561  0.81481119     1.90100
O1488       O  0.98710356  0.51539205  0.83315533    -0.73800
O1489       O  0.96271630  0.60459434  0.86024321    -0.73700
O1490       O  0.50993432  0.57733304  0.81184211    -0.79300
O1491       O  0.96579150  0.62821791  0.80849324    -0.77500
O1492       O  0.94136334  0.56124708  0.81335909    -1.13700
O1493       O  0.90148731  0.61179064  0.79193574    -0.72800
C1494       C  0.87358076  0.59558219  0.78813574     0.97900
C1495       C  0.96531916  0.98843194  0.84068475     0.94300
Al1496     Al  0.97367134  0.56016914  0.84559532     1.55600
O1497       O  0.91894038  0.51247797  0.77181602    -0.77500
C1498       C  0.96986895  0.62999688  0.84125168     0.98400
C1499       C  0.91008121  0.54114832  0.88426566     0.93300
O1500       O  0.89217847  0.54771233  0.85789743    -0.82800
O1501       O  0.68394519  0.75361188  0.66238385    -0.82300
C1502       C  0.72013889  0.61775318  0.66074752     0.97100
O1503       O  0.71489007  0.64326170  0.64123916    -0.71400
O1504       O  0.69569222  0.70465483  0.61726245    -0.75000
Al1505     Al  0.72473521  0.68804531  0.65608128     1.49000
C1506       C  0.66284845  0.70606909  0.61436996     0.92400
O1507       O  0.62091128  0.68487856  0.70335977    -0.81200
O1508       O  0.66920148  0.68722959  0.75471336    -0.74700
Al1509     Al  0.65596193  0.71599009  0.68299268     1.90100
O1510       O  0.64979221  0.63625337  0.70759155    -0.73800
O1511       O  0.73392971  0.67335250  0.73765341    -0.73700
O1512       O  0.71510631  0.62000597  0.69333680    -0.79300
O1513       O  0.76111679  0.67134424  0.68795388    -0.77500
O1514       O  0.69087001  0.68683046  0.68683005    -1.13700
O1515       O  0.73683221  0.73337541  0.66876451    -0.72800
C1516       C  0.71668419  0.75773409  0.66084455     0.97900
C1517       C  0.62185801  0.65266207  0.71003657     0.94300
Al1518     Al  0.69190396  0.65644670  0.72087279     1.55600
O1519       O  0.64395206  0.69824975  0.63968192    -0.77500
C1520       C  0.76111511  0.66782803  0.72074701     0.98400
C1521       C  0.66178964  0.71935336  0.75332965     0.93300
O1522       O  0.66500681  0.73599734  0.72560197    -0.82800
O1523       O  0.99605735  0.82712046  0.94099060    -0.82300
C1524       C  0.63435841  0.84828915  0.95770499     0.97100
O1525       O  0.60690620  0.86494125  0.95248720    -0.71400
O1526       O  0.54177607  0.88207292  0.93878549    -0.75000
Al1527     Al  0.56475976  0.84665231  0.96768280     1.49000
C1528       C  0.53693477  0.88357174  0.90617919     0.92400
O1529       O  0.56215953  0.79484157  0.86677006    -0.81200
O1530       O  0.57102368  0.74625128  0.91436723    -0.74700
Al1531     Al  0.53196699  0.81288716  0.90416276     1.90100
O1532       O  0.61335729  0.79911745  0.89105261    -0.73800
O1533       O  0.58695920  0.76682815  0.97832910    -0.73700
O1534       O  0.63444268  0.81548655  0.95411894    -0.79300
O1535       O  0.59087567  0.81192748  0.50292429    -0.77500
O1536       O  0.56514632  0.81452439  0.93545858    -1.13700
O1537       O  0.52279364  0.83103472  0.98533731    -0.72800
C1538       C  0.99624191  0.83037844  0.97394897     0.97900
C1539       C  0.59509331  0.79215680  0.86508273     0.94300
Al1540     Al  0.59901268  0.78407665  0.93456310     1.55600
O1541       O  0.54241538  0.85747058  0.88760961    -0.77500
C1542       C  0.59721146  0.77946188  0.50204925     0.98400
C1543       C  0.53834602  0.74287379  0.91125307     0.93300
O1544       O  0.51862814  0.76795592  0.91776089    -0.82800
C1545       C  0.62145185  0.74965611  0.59221559    -0.21800
C1546       C  0.64623789  0.72385259  0.58497416    -0.09800
C1547       C  0.65528731  0.71721136  0.55058569     0.29100
C1548       C  0.63876994  0.73533354  0.52388809    -0.21800
C1549       C  0.61383816  0.76108127  0.53115813    -0.09800
C1550       C  0.60575065  0.76850690  0.56562086     0.29100
F1551       F  0.58221272  0.79332217  0.57354110    -0.20300
H1552       H  0.61464844  0.75570381  0.61873263     0.17400
H1553       H  0.64583085  0.72955801  0.49737088     0.17400
F1554       F  0.67935789  0.69284165  0.54283191    -0.20300
C1555       C  0.61542028  0.75761759  0.77555547    -0.21800
C1556       C  0.64511558  0.73747595  0.78231958    -0.09800
C1557       C  0.65842669  0.73614968  0.81586881     0.29100
C1558       C  0.64254695  0.75523911  0.84214568    -0.21800
C1559       C  0.61259134  0.77523843  0.83557451    -0.09800
C1560       C  0.59892673  0.77596084  0.80203228     0.29100
F1561       F  0.57000859  0.79455658  0.79479181    -0.20300
H1562       H  0.60471254  0.75875224  0.74966189     0.17400
H1563       H  0.65327977  0.75363583  0.86799158     0.17400
F1564       F  0.68711724  0.71716524  0.82301693    -0.20300
C1565       C  0.78295156  0.62326749  0.76163373    -0.21800
C1566       C  0.79018914  0.65107133  0.73906353    -0.09800
C1567       C  0.82461389  0.66047478  0.73321226     0.29100
C1568       C  0.85124098  0.64283810  0.75031692    -0.21800
C1569       C  0.84413897  0.61471521  0.77263036    -0.09800
C1570       C  0.80963989  0.60478554  0.77778408     0.29100
F1571       F  0.80172031  0.57741635  0.79834226    -0.20300
H1572       H  0.75644904  0.61509880  0.76590524     0.17400
H1573       H  0.87771581  0.65064908  0.74527650     0.17400
F1574       F  0.83243927  0.68679915  0.71130721    -0.20300
C1575       C  0.56808676  0.61648358  0.70730308    -0.21800
C1576       C  0.59252487  0.63480168  0.72668652    -0.09800
C1577       C  0.59200070  0.63200036  0.76300594     0.29100
C1578       C  0.56679927  0.61213258  0.77971491    -0.21800
C1579       C  0.54135245  0.59470960  0.76063980    -0.09800
C1580       C  0.54252004  0.59675972  0.72402245     0.29100
F1581       F  0.05708060  0.54467169  0.73443935    -0.20300
H1582       H  0.56885475  0.61739557  0.67928086     0.17400
H1583       H  0.56642879  0.61156308  0.80775415     0.17400
F1584       F  0.61596724  0.64859309  0.78250172    -0.20300
C1585       C  0.53106227  0.70498424  0.85974224    -0.21800
C1586       C  0.52290343  0.71218642  0.89449428    -0.09800
C1587       C  0.03284799  0.67711189  0.89877620     0.29100
C1588       C  0.01591874  0.65107174  0.88032097    -0.21800
C1589       C  0.98821127  0.65885730  0.85782336    -0.09800
C1590       C  0.51217507  0.68032442  0.84090785     0.29100
F1591       F  0.52109939  0.67388235  0.80755361    -0.20300
H1592       H  0.55141465  0.71933145  0.84681382     0.17400
H1593       H  0.02439192  0.62457056  0.88367251     0.17400
F1594       F  0.05937634  0.66876547  0.92025188    -0.20300
C1595       C  0.97204191  0.94938706  0.89131903    -0.21800
C1596       C  0.98088787  0.95770079  0.85699508    -0.09800
C1597       C  0.51481883  0.95275193  0.84045307     0.29100
C1598       C  0.53328196  0.92742545  0.85876738    -0.21800
C1599       C  0.52004955  0.91363987  0.88970753    -0.09800
C1600       C  0.99194937  0.92570708  0.91036508     0.29100
F1601       F  0.98232493  0.91776443  0.94324350    -0.20300
H1602       H  0.95048694  0.96226733  0.90381029     0.17400
H1603       H  0.55805415  0.91867851  0.84893033     0.17400
F1604       F  0.52915474  0.96689258  0.81161930    -0.20300
C1605       C  0.91669238  0.48785322  0.69562175    -0.21800
C1606       C  0.89886453  0.51265324  0.71508591    -0.09800
C1607       C  0.86282189  0.51576371  0.71113708     0.29100
C1608       C  0.84366689  0.97971849  0.69454735    -0.21800
C1609       C  0.86121059  0.97353160  0.66340990    -0.09800
C1610       C  0.89594103  0.98512621  0.66007640     0.29100
F1611       F  0.91419242  0.98029320  0.63042446    -0.20300
H1612       H  0.94419697  0.48398707  0.69953134     0.17400
H1613       H  0.81700793  0.97163666  0.69772746     0.17400
F1614       F  0.84453658  0.53820426  0.73096591    -0.20300
C1615       C  0.86256212  0.50518437  0.90860421    -0.21800
C1616       C  0.89239239  0.52547627  0.91437981    -0.09800
C1617       C  0.90625514  0.52716844  0.94782828     0.29100
C1618       C  0.89493933  0.99987138  0.97440735    -0.21800
C1619       C  0.86334962  0.98259766  0.96890616    -0.09800
C1620       C  0.84693602  0.98543412  0.93682014     0.29100
F1621       F  0.90068139  0.94382883  0.46277923    -0.20300
H1622       H  0.85166018  0.50294987  0.88287568     0.17400
H1623       H  0.90779882  0.99807701  0.99927973     0.17400
F1624       F  0.93498767  0.54625970  0.95436341    -0.20300
C1625       C  0.77472330  0.83406834  0.64258670    -0.21800
C1626       C  0.76913062  0.83923215  0.60687587    -0.09800
C1627       C  0.74560231  0.81755203  0.58961241     0.29100
C1628       C  0.72670631  0.79276483  0.60815937    -0.21800
C1629       C  0.73196538  0.78816442  0.64385732    -0.09800
C1630       C  0.75691334  0.80827554  0.66074968     0.29100
F1631       F  0.76388141  0.80306523  0.69480714    -0.20300
H1632       H  0.79280749  0.85025765  0.65655798     0.17400
H1633       H  0.70878270  0.77623473  0.59437115     0.17400
F1634       F  0.74034909  0.82063833  0.55503137    -0.20300
C1635       C  0.72234216  0.57385887  0.61437857    -0.21800
C1636       C  0.73659896  0.58747362  0.64478269    -0.09800
C1637       C  0.77035856  0.57778788  0.65444989     0.29100
C1638       C  0.78916312  0.55432652  0.63418589    -0.21800
C1639       C  0.77429040  0.53965511  0.60449054    -0.09800
C1640       C  0.74069413  0.54978983  0.59469156     0.29100
F1641       F  0.72551722  0.53615934  0.56611591    -0.20300
H1642       H  0.69698842  0.58218706  0.60572085     0.17400
H1643       H  0.81485956  0.54670804  0.64235578     0.17400
F1644       F  0.78567015  0.59208613  0.68259779    -0.20300
C1645       C  0.94319816  0.89515201  0.53155943    -0.21800
C1646       C  0.90929313  0.88435177  0.52504237    -0.09800
C1647       C  0.94686683  0.88481422  0.03876908     0.29100
C1648       C  0.97357106  0.86758978  0.02136578    -0.21800
C1649       C  0.96660340  0.84516341  0.99336903    -0.09800
C1650       C  0.97115550  0.87787865  0.51637123     0.29100
F1651       F  0.00361410  0.88966922  0.52279423    -0.20300
H1652       H  0.94803592  0.91718870  0.54812195     0.17400
H1653       H  0.00001008  0.87281108  0.02908543     0.17400
F1654       F  0.95469063  0.90687779  0.06489159    -0.20300
C1655       C  0.65901341  0.90095004  0.98604755    -0.21800
C1656       C  0.66418399  0.86721535  0.97285509    -0.09800
C1657       C  0.67174798  0.85642504  0.50849260     0.29100
C1658       C  0.69347182  0.87804596  0.52771730    -0.21800
C1659       C  0.71048888  0.90593498  0.51197828    -0.09800
C1660       C  0.68485062  0.91779274  0.00503413     0.29100
F1661       F  0.67898902  0.95000314  0.01760464    -0.20300
H1662       H  0.63444951  0.91402732  0.98265263     0.17400
H1663       H  0.69829599  0.87194384  0.55466099     0.17400
F1664       F  0.65649495  0.82934522  0.52472721    -0.20300
loop_ 
_geom_bond_atom_site_label_1 
_geom_bond_atom_site_label_2 
_geom_bond_distance 
_geom_bond_site_symmetry_2 
_ccdc_geom_bond_type 
O1           C16   1.277       .  A
O1           Al9   1.981       .  S
C2           O12   1.275       .  A
C2            O3   1.255       .  A
C2          C203   1.483       .  S
O3           Al5   1.868       .  S
O4            C6   1.275       .  A
O4         Al213   1.974       .  S
Al5          O13   1.983       .  S
Al5          O15   1.856       .  S
Al5         O212   1.978   1_554  S
Al5          O14   1.759       .  S
C6          O227   1.257       .  A
C6          C163   1.465       .  S
O7           C17   1.277       .  A
O7         Al425   1.980   1_545  S
O8           C21   1.275       .  A
O8          Al18   1.981       .  S
Al9          O22   1.882       .  S
Al9          O19   1.875       .  S
Al9         O423   1.988       .  S
Al9          O14   1.760       .  S
O10         C433   1.258       .  A
O10         Al18   1.870       .  S
O11          C20   1.258       .  A
O11         Al18   1.873       .  S
O12         Al18   1.976       .  S
O13          C20   1.277       .  A
O14         Al18   1.763       .  S
O15          C16   1.254       .  A
C16         C190   1.477       .  S
C17         O426   1.258   1_545  A
C17         C183   1.481       .  S
O19         C214   1.256   1_554  A
C20         C170   1.468       .  S
C21          O22   1.258       .  A
C21         C153   1.483       .  S
O23          C38   1.277       .  A
O23         Al31   1.985       .  S
C24          O34   1.277       .  A
C24         O857   1.256   1_455  A
C24         C123   1.475       .  S
O25         C856   1.256       .  A
O25         Al27   1.873       .  S
O26          C28   1.276       .  A
O26         Al27   1.979       .  S
Al27         O35   1.984       .  S
Al27         O37   1.866       .  S
Al27         O36   1.762       .  S
C28          O41   1.256       .  A
C28         C150   1.472       .  S
O29          C39   1.274       .  A
O29        Al447   1.974       .  S
O30          C43   1.276       .  A
O30         Al40   1.980       .  S
Al31         O44   1.884       .  S
Al31         O41   1.873       .  S
Al31        O445   1.989   1_545  S
Al31         O36   1.762       .  S
O32         C455   1.259   1_545  A
O32         Al40   1.878       .  S
O33          C42   1.257       .  A
O33         Al40   1.870       .  S
O34        Al872   1.979   1_455  S
O35          C42   1.277       .  A
O36         Al40   1.762       .  S
O37          C38   1.255       .  A
C38         C113   1.486       .  S
C39         O448   1.258       .  A
C39         C140   1.483       .  S
Al40        O866   1.977       .  S
C42         C133   1.471       .  S
C43          O44   1.260       .  A
C43         C160   1.491       .  S
O45          C60   1.277       .  A
O45         Al53   1.981       .  S
C46          O56   1.276       .  A
C46          O47   1.257       .  A
C46         C180   1.468       .  S
O47         Al49   1.869       .  S
O48          C50   1.276       .  A
O48         Al49   1.982       .  S
Al49         O57   1.980       .  S
Al49         O59   1.877       .  S
Al49         O58   1.764       .  S
C50          O63   1.257       .  A
C50          C90   1.479       .  S
O51          C61   1.272       .  A
O51         Al53   1.969       .  S
O52          C65   1.278       .  A
O52         Al62   1.982       .  S
Al53         O66   1.856       .  S
Al53         O63   1.875       .  S
Al53         O58   1.763       .  S
O54          C61   1.253       .  A
O54         Al62   1.865       .  S
O55          C64   1.255       .  A
O55         Al62   1.867       .  S
O56         Al62   1.978       .  S
O57          C64   1.275       .  A
O58         Al62   1.759       .  S
O59          C60   1.260       .  A
C60         C173   1.485       .  S
C61         C120   1.478       .  S
C64         C110   1.480       .  S
C65          O66   1.256       .  A
C65         C100   1.475       .  S
O67          C82   1.275       .  A
O67        Al907   1.984       .  S
C68          O78   1.276       .  A
C68          O69   1.255       .  A
C68         C200   1.479       .  S
O69         Al71   1.864       .  S
O70          C72   1.280       .  A
O70         Al71   1.996       .  S
Al71         O81   1.864       .  S
Al71        O287   1.984       .  S
Al71         O80   1.757       .  S
C72          O85   1.259       .  A
C72         C143   1.480       .  S
O73          C83   1.275       .  A
O73         Al75   1.983       .  S
O74          C87   1.278       .  A
O74         Al84   1.987       .  S
Al75         O88   1.871       .  S
Al75         O85   1.872       .  S
Al75        O899   1.979   1_455  S
Al75         O80   1.767       .  S
O76          C83   1.255       .  A
O76         Al84   1.868       .  S
O77         C294   1.255       .  A
O77         Al84   1.864       .  S
O78         Al84   1.979       .  S
O79          C86   1.278       .  A
O79        Al279   1.985   1_554  S
O80         Al84   1.762       .  S
O81         C914   1.254   1_455  A
C82         O913   1.254       .  A
C82         C193   1.484       .  S
C83         C103   1.478       .  S
C86         O285   1.257   1_554  A
C86          C93   1.473       .  S
C87          O88   1.258       .  A
C87         C130   1.472       .  S
C89          C90   1.403       .  A
C89          C94   1.400       .  A
C89          H96   1.083       .  S
C90          C91   1.409       .  A
C91          C92   1.400       .  A
C91          F98   1.358       .  S
C92          C93   1.403       .  A
C92          H97   1.083       .  S
C93          C94   1.406       .  A
C94          F95   1.356       .  S
C99         C100   1.412       .  A
C99         C104   1.399       .  A
C99         H106   1.083       .  S
C100        C101   1.397       .  A
C101        C102   1.399       .  A
C101        F108   1.357       .  S
C102        C103   1.413       .  A
C102        H107   1.083       .  S
C103        C104   1.398       .  A
C104        F105   1.357       .  S
C109        C110   1.411       .  A
C109        C114   1.401       .  A
C109        H116   1.084       .  S
C110        C111   1.398       .  A
C111        C112   1.402       .  A
C111        F118   1.357       .  S
C112        C113   1.415       .  A
C112        H117   1.084       .  S
C113        C114   1.401       .  A
C114        F115   1.357       .  S
C119        C120   1.398       .  A
C119        C124   1.398       .  A
C119        H126   1.083       .  S
C120        C121   1.416       .  A
C121        C122   1.397       .  A
C121        F128   1.357       .  S
C122        C123   1.395       .  A
C122        H127   1.083       .  S
C123        C124   1.415       .  A
C124        F957   1.358   1_455  S
F125        C956   1.357       .  S
C129        C130   1.405       .  A
C129        C134   1.402       .  A
C129        H136   1.084       .  S
C130        C963   1.405   1_455  A
C131        C132   1.403       .  A
C131        C962   1.408       .  A
C131        F138   1.356       .  S
C132        C133   1.404       .  A
C132        H137   1.084       .  S
C133        C966   1.403       .  A
C134        C965   1.406   1_455  A
C134        F135   1.358       .  S
C139        C140   1.408       .  A
C139        C144   1.400       .  A
C139        H146   1.083       .  S
C140        C973   1.408       .  A
C141        C142   1.400       .  A
C141        C972   1.406   1_455  A
C141        F148   1.358       .  S
C142        C143   1.405       .  A
C142        H147   1.084       .  S
C143        C976   1.407   1_455  A
C144        C975   1.403       .  A
C144        F145   1.357       .  S
C149        C150   1.403   1_565  A
C149        C570   1.401       .  A
C149        H156   1.083       .  S
C150        C151   1.405       .  A
C151        C568   1.401       .  A
C151        F158   1.358       .  S
C152        C153   1.405       .  A
C152        C567   1.403       .  A
C152        H157   1.082       .  S
C153        C154   1.408       .  A
C154        C565   1.401       .  A
C154        F155   1.358       .  S
C159        C160   1.411       .  A
C159        C580   1.402       .  A
C159        H166   1.083       .  S
C160        C161   1.409       .  A
C161        C578   1.403   1_545  A
C161        F168   1.357       .  S
C162        C163   1.404       .  A
C162        C577   1.402       .  A
C162        H167   1.084       .  S
C163        C164   1.399       .  A
C164        C575   1.397       .  A
C164        F373   1.357       .  S
F165        C372   1.357       .  S
C169        C170   1.403       .  A
C169        C174   1.401       .  A
C169        H176   1.084       .  S
C170        C171   1.401       .  A
C171        C172   1.399       .  A
C171        F178   1.358       .  S
C172        C173   1.410       .  A
C172        H177   1.083       .  S
C173        C174   1.408       .  A
C174        F175   1.357       .  S
C179        C180   1.400       .  A
C179        C184   1.400       .  A
C179        H186   1.083       .  S
C180        C181   1.405       .  A
C181        C182   1.400       .  A
C181        F188   1.357       .  S
C182        C183   1.404       .  A
C182        H187   1.083       .  S
C183        C184   1.412       .  A
C184        F185   1.358       .  S
C189        C190   1.413       .  A
C189        C194   1.399   1_554  A
C189        H196   1.083   1_554  S
C190        C399   1.397       .  A
C191        C192   1.400       .  A
C191        C398   1.397       .  A
C191        F198   1.357       .  S
C192        C193   1.414       .  A
C192        H197   1.083       .  S
C193        C402   1.401       .  A
C194        C401   1.398       .  A
C194        F195   1.358       .  S
C199        C200   1.396       .  A
C199        C204   1.401       .  A
C199        H206   1.083       .  S
C200        C409   1.414       .  A
C201        C202   1.400       .  A
C201        C408   1.395       .  A
C201        F208   1.357       .  S
C202        C203   1.416   1_556  A
C202        H207   1.083       .  S
C203        C412   1.403       .  A
C204        C411   1.419       .  A
C204        F205   1.357       .  S
O209        C224   1.276       .  A
O209       Al217   1.979       .  S
C210        O220   1.277       .  A
C210        O211   1.254       .  A
C210        C411   1.487       .  S
O211       Al213   1.866       .  S
O212        C214   1.275       .  A
Al213       O221   1.982       .  S
Al213       O223   1.868       .  S
Al213       O222   1.763       .  S
C214        C371   1.472       .  S
O215        C225   1.277       .  A
O215       Al633   1.984   1_545  S
O216        C229   1.279       .  A
O216       Al226   1.995       .  S
Al217       O631   1.988       .  S
Al217       O230   1.880       .  S
Al217       O227   1.869       .  S
Al217       O222   1.763       .  S
O218        C641   1.258       .  A
O218       Al226   1.878       .  S
O219        C228   1.259       .  A
O219       Al226   1.875       .  S
O220       Al226   1.987       .  S
O221        C228   1.277       .  A
O222       Al226   1.762       .  S
O223        C224   1.256       .  A
C224        C398   1.479       .  S
C225        O634   1.259   1_545  A
C225        C391   1.479       .  S
C228        C378   1.479       .  S
C229        O230   1.259       .  A
C229        C361   1.489       .  S
O231        C246   1.276       .  A
O231       Al239   1.979       .  S
C232        O242   1.274       .  A
C232       O1065   1.255   1_455  A
C232        C331   1.483       .  S
O233       C1064   1.254       .  A
O233       Al235   1.864       .  S
O234        C236   1.277       .  A
O234       Al235   1.984       .  S
Al235       O243   1.980       .  S
Al235       O245   1.865       .  S
Al235       O244   1.762       .  S
C236        O249   1.256       .  A
C236        C358   1.472       .  S
O237        C247   1.277       .  A
O237       Al655   1.982       .  S
O238        C251   1.277       .  A
O238       Al248   1.986       .  S
Al239       O653   1.983   1_545  S
Al239       O252   1.878       .  S
Al239       O249   1.869       .  S
Al239       O244   1.760       .  S
O240        C663   1.259   1_545  A
O240       Al248   1.878       .  S
O241        C250   1.257       .  A
O241       Al248   1.871       .  S
O242      Al1080   1.974   1_455  S
O243        C250   1.276       .  A
O244       Al248   1.764       .  S
O245        C246   1.254       .  A
C246        C321   1.484       .  S
C247        O656   1.258       .  A
C247        C348   1.481       .  S
Al248      O1074   1.979       .  S
C250        C341   1.467       .  S
C251        O252   1.259       .  A
C251        C368   1.491       .  S
O253        C268   1.276       .  A
O253       Al261   1.982       .  S
C254        O264   1.277       .  A
C254        O255   1.258       .  A
C254        C388   1.478       .  S
O255       Al257   1.875       .  S
O256        C258   1.278       .  A
O256       Al257   1.988       .  S
Al257       O265   1.987       .  S
Al257       O267   1.883       .  S
Al257       O266   1.764       .  S
C258        O271   1.260       .  A
C258        C298   1.492       .  S
O259        C269   1.274       .  A
O259       Al261   1.979       .  S
O260        C273   1.277       .  A
O260       Al270   1.979       .  S
Al261       O274   1.865       .  S
Al261       O271   1.876       .  S
Al261       O266   1.766       .  S
O262        C269   1.255       .  A
O262       Al270   1.882       .  S
O263        C272   1.253       .  A
O263       Al270   1.860       .  S
O264       Al270   1.984       .  S
O265        C272   1.276       .  A
O266       Al270   1.760       .  S
O267        C268   1.259       .  A
C268        C381   1.477       .  S
C269        C328   1.476       .  S
C272        C318   1.477       .  S
C273        O274   1.257       .  A
C273        C308   1.472       .  S
O275        C290   1.274       .  A
O275      Al1115   1.975       .  S
C276        O286   1.274       .  A
C276        O277   1.253       .  A
C276        C408   1.467       .  S
O277       Al279   1.861       .  S
O278        C280   1.275       .  A
O278       Al279   1.976       .  S
Al279       O289   1.865       .  S
Al279       O288   1.760       .  S
C280        O293   1.257       .  A
C280        C351   1.478       .  S
O281        C291   1.280       .  A
O281       Al283   1.997       .  S
O282        C295   1.275       .  A
O282       Al292   1.977       .  S
Al283      O1107   1.993   1_455  S
Al283       O296   1.881       .  S
Al283       O293   1.870       .  S
Al283       O288   1.759       .  S
O284        C291   1.257       .  A
O284       Al292   1.866       .  S
O285       Al292   1.874       .  S
O286       Al292   1.981       .  S
O287        C294   1.276       .  A
O288       Al292   1.762       .  S
O289       C1122   1.256   1_455  A
C290       O1121   1.255       .  A
C290        C401   1.476       .  S
C291        C311   1.490       .  S
C294        C301   1.473       .  S
C295        O296   1.258       .  A
C295        C338   1.474       .  S
C297        C298   1.414       .  A
C297        C302   1.401       .  A
C297        H304   1.083       .  S
C298        C299   1.408       .  A
C299        C300   1.403       .  A
C299        F306   1.357       .  S
C300        C301   1.407       .  A
C300        H305   1.084       .  S
C301        C302   1.397       .  A
C302        F303   1.357       .  S
C307        C308   1.408       .  A
C307        C312   1.402       .  A
C307        H314   1.083       .  S
C308        C309   1.396       .  A
C309        C310   1.400       .  A
C309        F316   1.357       .  S
C310        C311   1.417       .  A
C310        H315   1.083       .  S
C311        C312   1.404       .  A
C312        F313   1.357       .  S
C317        C318   1.411       .  A
C317        C322   1.399       .  A
C317        H324   1.084       .  S
C318        C319   1.397       .  A
C319        C320   1.402       .  A
C319        F326   1.357       .  S
C320        C321   1.416       .  A
C320        H325   1.084       .  S
C321        C322   1.400       .  A
C322        F323   1.357       .  S
C327        C328   1.403       .  A
C327        C332   1.406       .  A
C327        H334   1.083       .  S
C328        C329   1.407       .  A
C329        C330   1.397       .  A
C329        F336   1.354       .  S
C330        C331   1.400       .  A
C330        H335   1.083       .  S
C331        C332   1.413       .  A
C332       F1165   1.357       .  S
F333       C1164   1.357       .  S
C337        C338   1.405       .  A
C337        C342   1.401       .  A
C337        H344   1.083       .  S
C338       C1171   1.403   1_455  A
C339       C1170   1.406       .  A
C339        C340   1.401       .  A
C339        F346   1.356       .  S
C340        C341   1.404       .  A
C340        H345   1.084       .  S
C341       C1174   1.401       .  A
C342       C1173   1.405   1_455  A
C342        F343   1.355       .  S
C347        C348   1.405       .  A
C347        C352   1.402       .  A
C347        H354   1.083       .  S
C348       C1181   1.411       .  A
C349       C1180   1.401   1_455  A
C349        C350   1.398       .  A
C349        F356   1.357       .  S
C350        C351   1.408       .  A
C350        H355   1.083       .  S
C351       C1184   1.406   1_455  A
C352       C1183   1.406       .  A
C352        F353   1.358       .  S
C357        C358   1.398   1_565  A
C357        C778   1.401       .  A
C357        H364   1.083       .  S
C358        C359   1.407       .  A
C359        C776   1.402   1_545  A
C359        F366   1.357       .  S
C360        C775   1.405       .  A
C360        C361   1.405       .  A
C360        H365   1.081       .  S
C361        C362   1.411       .  A
C362        C773   1.404       .  A
C362        F363   1.358       .  S
C367        C368   1.412       .  A
C367        C788   1.401       .  A
C367        H374   1.083       .  S
C368        C369   1.409       .  A
C369        C786   1.403   1_545  A
C369        F376   1.357       .  S
C370        C785   1.402       .  A
C370        C371   1.405       .  A
C370        H375   1.084       .  S
C371        C372   1.401       .  A
C372        C783   1.402       .  A
C377        C378   1.406       .  A
C377        C382   1.401       .  A
C377        H384   1.083       .  S
C378        C379   1.407       .  A
C379        C380   1.403       .  A
C379        F386   1.358       .  S
C380        C381   1.405       .  A
C380        H385   1.082       .  S
C381        C382   1.405       .  A
C382        F383   1.357       .  S
C387        C388   1.405       .  A
C387        C392   1.400       .  A
C387        H394   1.083       .  S
C388        C389   1.407       .  A
C389        C390   1.403       .  A
C389        F396   1.357       .  S
C390        C391   1.404       .  A
C390        H395   1.081       .  S
C391        C392   1.406       .  A
C392        F393   1.357       .  S
C397        C398   1.412       .  A
C397        C402   1.402       .  A
C397        H404   1.083       .  S
C399        C400   1.398       .  A
C399        F406   1.357       .  S
C400        C401   1.412   1_554  A
C400        H405   1.083       .  S
C402        F403   1.357       .  S
C407        C408   1.407   1_554  A
C407        C412   1.396       .  A
C407        H414   1.084       .  S
C409        C410   1.400       .  A
C409        F416   1.358       .  S
C410        C411   1.398       .  A
C410        H415   1.083       .  S
C412        F413   1.357       .  S
O417        C432   1.275       .  A
O417       Al425   1.978       .  S
C418        O428   1.272       .  A
C418        O419   1.255       .  A
C418        C619   1.467       .  S
O419       Al421   1.868       .  S
O420        C422   1.278       .  A
O420       Al629   1.990       .  S
Al421       O628   1.983   1_554  S
Al421       O429   1.980       .  S
Al421       O431   1.864       .  S
Al421       O430   1.761       .  S
C422        O643   1.256       .  A
C422        C579   1.474       .  S
O423        C433   1.279       .  A
O424        C437   1.275       .  A
O424       Al434   1.975       .  S
Al425       O438   1.884       .  S
Al425       O435   1.873       .  S
Al425       O430   1.764       .  S
O426       Al434   1.873       .  S
O427        C436   1.257       .  A
O427       Al434   1.870       .  S
O428       Al434   1.969       .  S
O429        C436   1.276       .  A
O430       Al434   1.765       .  S
O431        C432   1.255       .  A
C432        C606   1.484       .  S
C433        C599   1.484       .  S
O435        C630   1.257   1_554  A
C436        C586   1.469       .  S
C437        O438   1.259       .  A
C437        C569   1.482       .  S
O439        C454   1.275       .  A
O439       Al447   1.975       .  S
C440        O450   1.275       .  A
C440       O1273   1.254   1_455  A
C440        C539   1.472       .  S
O441       C1272   1.254       .  A
O441       Al443   1.860       .  S
O442        C444   1.278       .  A
O442       Al443   1.989       .  S
Al443       O451   1.984       .  S
Al443       O453   1.864       .  S
Al443       O452   1.758       .  S
C444        O457   1.258       .  A
C444        C566   1.477       .  S
O445        C455   1.278       .  A
O446        C459   1.277       .  A
O446       Al456   1.983       .  S
Al447       O460   1.869       .  S
Al447       O457   1.876       .  S
Al447       O452   1.763       .  S
O448       Al456   1.881       .  S
O449        C458   1.258       .  A
O449       Al456   1.883       .  S
O450      Al1288   1.977   1_455  S
O451        C458   1.276       .  A
O452       Al456   1.763       .  S
O453        C454   1.255       .  A
C454        C529   1.478       .  S
C455        C556   1.482       .  S
Al456      O1282   1.974       .  S
C458        C549   1.480       .  S
C459        O460   1.259       .  A
C459        C576   1.483       .  S
O461        C476   1.277       .  A
O461       Al469   1.985       .  S
C462        O472   1.275       .  A
C462        O463   1.255       .  A
C462        C596   1.468       .  S
O463       Al465   1.866       .  S
O464        C466   1.275       .  A
O464       Al465   1.973       .  S
Al465       O473   1.966       .  S
Al465       O475   1.872       .  S
Al465       O474   1.760       .  S
C466        O479   1.258       .  A
C466        C506   1.469       .  S
O467        C477   1.275       .  A
O467       Al469   1.981       .  S
O468        C481   1.279       .  A
O468       Al478   1.990       .  S
Al469       O482   1.874       .  S
Al469       O479   1.877       .  S
Al469       O474   1.763       .  S
O470        C477   1.254       .  A
O470       Al478   1.864       .  S
O471        C480   1.255       .  A
O471       Al478   1.863       .  S
O472       Al478   1.980       .  S
O473        C480   1.274       .  A
O474       Al478   1.759       .  S
O475        C476   1.258       .  A
C476        C589   1.489       .  S
C477        C536   1.483       .  S
C480        C526   1.471       .  S
C481        O482   1.258       .  A
C481        C516   1.477       .  S
O483        C498   1.274       .  A
O483      Al1323   1.978       .  S
C484        O494   1.278       .  A
C484        O485   1.255       .  A
C484        C616   1.497       .  S
O485       Al487   1.873       .  S
O486        C488   1.275       .  A
O486       Al487   1.974       .  S
Al487       O703   1.978       .  S
Al487       O497   1.868       .  S
Al487       O496   1.763       .  S
C488        O501   1.256       .  A
C488        C559   1.469       .  S
O489        C499   1.278       .  A
O489       Al491   1.983       .  S
O490        C503   1.278       .  A
O490       Al500   1.993       .  S
Al491      O1315   1.970   1_455  S
Al491       O504   1.875       .  S
Al491       O501   1.858       .  S
Al491       O496   1.763       .  S
O492        C499   1.261       .  A
O492       Al500   1.883       .  S
O493        C710   1.257       .  A
O493       Al500   1.869       .  S
O494       Al500   1.993       .  S
O495        C502   1.275       .  A
O495       Al695   1.979   1_554  S
O496       Al500   1.765       .  S
O497       C1330   1.254   1_455  A
C498       O1329   1.253       .  A
C498        C609   1.472       .  S
C499        C519   1.481       .  S
C502        O701   1.256   1_554  A
C502        C509   1.472       .  S
C503        O504   1.257       .  A
C503        C546   1.492       .  S
C505        C506   1.403       .  A
C505        C510   1.399       .  A
C505        H512   1.082       .  S
C506        C507   1.404       .  A
C507        C508   1.398       .  A
C507        F514   1.358       .  S
C508        C509   1.405       .  A
C508        H513   1.083       .  S
C509        C510   1.405       .  A
C510        F511   1.357       .  S
C515        C516   1.404       .  A
C515        C520   1.401       .  A
C515        H522   1.084       .  S
C516        C517   1.406       .  A
C517        C518   1.403       .  A
C517        F524   1.357       .  S
C518        C519   1.405       .  A
C518        H523   1.082       .  S
C519        C520   1.408       .  A
C520        F521   1.358       .  S
C525        C526   1.410       .  A
C525        C530   1.399       .  A
C525        H532   1.084       .  S
C526        C527   1.396       .  A
C527        C528   1.397       .  A
C527        F534   1.357       .  S
C528        C529   1.413       .  A
C528        H533   1.084       .  S
C529        C530   1.401       .  A
C530        F531   1.357       .  S
C535        C536   1.416       .  A
C535        C540   1.399       .  A
C535        H542   1.083       .  S
C536        C537   1.402       .  A
C537        C538   1.399       .  A
C537        F544   1.357       .  S
C538        C539   1.410       .  A
C538        H543   1.084       .  S
C539        C540   1.395       .  A
C540       F1373   1.357       .  S
F541       C1372   1.357       .  S
C545        C546   1.413   1_655  A
C545        C550   1.401       .  A
C545        H552   1.083       .  S
C546       C1379   1.408       .  A
C547       C1378   1.411       .  A
C547        C548   1.404       .  A
C547        F554   1.357       .  S
C548        C549   1.403       .  A
C548        H553   1.083       .  S
C549       C1382   1.407       .  A
C550       C1381   1.399       .  A
C550        F551   1.357       .  S
C555        C556   1.404       .  A
C555        C560   1.404       .  A
C555        H562   1.082       .  S
C556       C1389   1.408       .  A
C557       C1388   1.401       .  A
C557        C558   1.398       .  A
C557        F564   1.357       .  S
C558        C559   1.409   1_655  A
C558        H563   1.084       .  S
C559       C1392   1.396       .  A
C560       C1391   1.406       .  A
C560        F561   1.356       .  S
C565        C566   1.403       .  A
C565        H572   1.083       .  S
C566        C567   1.406       .  A
C567        F574   1.357       .  S
C568        C569   1.405   1_545  A
C568        H573   1.082       .  S
C569        C570   1.409       .  A
C570        F571   1.358       .  S
C575        C576   1.411       .  A
C575        H582   1.083       .  S
C576        C577   1.408       .  A
C577        F584   1.357       .  S
C578        C579   1.405       .  A
C578        H583   1.084       .  S
C579        C580   1.402   1_565  A
C580        F789   1.357       .  S
F581        C788   1.357       .  S
C585        C586   1.405       .  A
C585        C590   1.401       .  A
C585        H592   1.084       .  S
C586        C587   1.397       .  A
C587        C588   1.400       .  A
C587        F594   1.357       .  S
C588        C589   1.415       .  A
C588        H593   1.083       .  S
C589        C590   1.407       .  A
C590        F591   1.357       .  S
C595        C596   1.399       .  A
C595        C600   1.399       .  A
C595        H602   1.083       .  S
C596        C597   1.406       .  A
C597        C598   1.401       .  A
C597        F604   1.357       .  S
C598        C599   1.404       .  A
C598        H603   1.083       .  S
C599        C600   1.414       .  A
C600        F601   1.358       .  S
C605        C606   1.416       .  A
C605        C610   1.401   1_554  A
C605        H612   1.083       .  S
C606        C815   1.401       .  A
C607        C814   1.404       .  A
C607        C608   1.399       .  A
C607        F614   1.357       .  S
C608        C609   1.408       .  A
C608        H613   1.084       .  S
C609        C818   1.395       .  A
C610        C817   1.396       .  A
C610        F611   1.357       .  S
C615        C616   1.402       .  A
C615        C620   1.402       .  A
C615        H622   1.083       .  S
C616        C825   1.422       .  A
C617        C824   1.403       .  A
C617        C618   1.397   1_556  A
C617        F624   1.357       .  S
C618        C619   1.407       .  A
C618        H623   1.083       .  S
C619        C828   1.395       .  A
C620        C827   1.412       .  A
C620        F621   1.357       .  S
O625        C640   1.276       .  A
O625       Al633   1.980       .  S
C626        O636   1.277       .  A
C626        O627   1.256       .  A
C626        C827   1.483       .  S
O627       Al629   1.873       .  S
O628        C630   1.276       .  A
Al629       O637   1.983       .  S
Al629       O639   1.868       .  S
Al629       O638   1.761       .  S
C630        C787   1.473       .  S
O631        C641   1.278       .  A
O632        C645   1.279       .  A
O632       Al642   1.993       .  S
Al633       O646   1.875       .  S
Al633       O643   1.870       .  S
Al633       O638   1.765       .  S
O634       Al642   1.879       .  S
O635        C644   1.257       .  A
O635       Al642   1.877       .  S
O636       Al642   1.990       .  S
O637        C644   1.276       .  A
O638       Al642   1.762       .  S
O639        C640   1.255       .  A
C640        C814   1.488       .  S
C641        C807   1.486       .  S
C644        C794   1.475       .  S
C645        O646   1.257       .  A
C645        C777   1.492       .  S
O647        C662   1.276       .  A
O647       Al655   1.973       .  S
C648        O658   1.272       .  A
C648       O1481   1.256   1_455  A
C648        C747   1.468       .  S
O649       C1480   1.257       .  A
O649       Al651   1.877       .  S
O650        C652   1.277       .  A
O650       Al651   1.990       .  S
Al651       O659   1.996       .  S
Al651       O661   1.862       .  S
Al651       O660   1.761       .  S
C652        O665   1.258       .  A
C652        C774   1.482       .  S
O653        C663   1.278       .  A
O654        C667   1.276       .  A
O654       Al664   1.983       .  S
Al655       O668   1.878       .  S
Al655       O665   1.881       .  S
Al655       O660   1.763       .  S
O656       Al664   1.870       .  S
O657        C666   1.259       .  A
O657       Al664   1.876       .  S
O658      Al1496   1.969   1_455  S
O659        C666   1.280       .  A
O660       Al664   1.761       .  S
O661        C662   1.256       .  A
C662        C737   1.477       .  S
C663        C764   1.479       .  S
Al664      O1490   1.977       .  S
C666        C757   1.488       .  S
C667        O668   1.258       .  A
C667        C784   1.489       .  S
O669        C684   1.277       .  A
O669       Al677   1.984       .  S
C670        O680   1.277       .  A
C670        O671   1.257       .  A
C670        C804   1.477       .  S
O671       Al673   1.877       .  S
O672        C674   1.276       .  A
O672       Al673   1.978       .  S
Al673       O681   1.975       .  S
Al673       O683   1.876       .  S
Al673       O682   1.763       .  S
C674        O687   1.258       .  A
C674        C714   1.484       .  S
O675        C685   1.274       .  A
O675       Al677   1.967       .  S
O676        C689   1.278       .  A
O676       Al686   1.987       .  S
Al677       O690   1.866       .  S
Al677       O687   1.874       .  S
Al677       O682   1.763       .  S
O678        C685   1.257       .  A
O678       Al686   1.880       .  S
O679        C688   1.254       .  A
O679       Al686   1.861       .  S
O680       Al686   1.987       .  S
O681        C688   1.274       .  A
O682       Al686   1.761       .  S
O683        C684   1.258       .  A
C684        C797   1.482       .  S
C685        C744   1.480       .  S
C688        C734   1.473       .  S
C689        O690   1.258       .  A
C689        C724   1.476       .  S
O691        C706   1.278       .  A
O691      Al1531   1.987       .  S
C692        O702   1.279       .  A
C692        O693   1.256       .  A
C692        C824   1.485       .  S
O693       Al695   1.862       .  S
O694        C696   1.276       .  A
O694       Al695   1.980       .  S
Al695       O705   1.863       .  S
Al695       O704   1.759       .  S
C696        O709   1.257       .  A
C696        C767   1.477       .  S
O697        C707   1.278       .  A
O697       Al699   1.992       .  S
O698        C711   1.276       .  A
O698       Al708   1.982       .  S
Al699      O1523   1.994   1_455  S
Al699       O712   1.861       .  S
Al699       O709   1.871       .  S
Al699       O704   1.757       .  S
O700        C707   1.257       .  A
O700       Al708   1.868       .  S
O701       Al708   1.869       .  S
O702       Al708   1.986       .  S
O703        C710   1.277       .  A
O704       Al708   1.761       .  S
O705       C1538   1.256   1_455  A
C706       O1537   1.255       .  A
C706        C817   1.474       .  S
C707        C727   1.488       .  S
C710        C717   1.466       .  S
C711        O712   1.256       .  A
C711        C754   1.475       .  S
C713        C714   1.411       .  A
C713        C718   1.400       .  A
C713        H720   1.083       .  S
C714        C715   1.407       .  A
C715        C716   1.400       .  A
C715        F722   1.356       .  S
C716        C717   1.403       .  A
C716        H721   1.084       .  S
C717        C718   1.401       .  A
C718        F719   1.358       .  S
C723        C724   1.409       .  A
C723        C728   1.400       .  A
C723        H730   1.083       .  S
C724        C725   1.397       .  A
C725        C726   1.402       .  A
C725        F732   1.357       .  S
C726        C727   1.416       .  A
C726        H731   1.083       .  S
C727        C728   1.402       .  A
C728        F729   1.357       .  S
C733        C734   1.410       .  A
C733        C738   1.396       .  A
C733        H740   1.084       .  S
C734        C735   1.398       .  A
C735        C736   1.399       .  A
C735        F742   1.357       .  S
C736        C737   1.414       .  A
C736        H741   1.084       .  S
C737        C738   1.399       .  A
C738        F739   1.357       .  S
C743        C744   1.409       .  A
C743        C748   1.403       .  A
C743        H750   1.083       .  S
C744        C745   1.406       .  A
C745        C746   1.396       .  A
C745        F752   1.355       .  S
C746        C747   1.402       .  A
C746        H751   1.083       .  S
C747        C748   1.402       .  A
C748       F1581   1.357       .  S
F749       C1580   1.358       .  S
C753        C754   1.414   1_655  A
C753        C758   1.398       .  A
C753        H760   1.083       .  S
C754       C1587   1.398       .  A
C755       C1586   1.403       .  A
C755        C756   1.402       .  A
C755        F762   1.357       .  S
C756        C757   1.409       .  A
C756        H761   1.083       .  S
C757       C1590   1.408       .  A
C758       C1589   1.396       .  A
C758        F759   1.357       .  S
C763        C764   1.403       .  A
C763        C768   1.400       .  A
C763        H770   1.082       .  S
C764       C1597   1.409       .  A
C765       C1596   1.403   1_455  A
C765        C766   1.398       .  A
C765        F772   1.357       .  S
C766        C767   1.406       .  A
C766        H771   1.083       .  S
C767       C1600   1.407   1_455  A
C768       C1599   1.406       .  A
C768        F769   1.356       .  S
C773        C774   1.403       .  A
C773        H780   1.083       .  S
C774        C775   1.408       .  A
C775        F782   1.357       .  S
C776        C777   1.405       .  A
C776        H781   1.083       .  S
C777        C778   1.417       .  A
C778        F779   1.358       .  S
C783        C784   1.412       .  A
C783        H790   1.083       .  S
C784        C785   1.408       .  A
C785        F792   1.357       .  S
C786        C787   1.405       .  A
C786        H791   1.084       .  S
C787        C788   1.400   1_565  A
C793        C794   1.402       .  A
C793        C798   1.401       .  A
C793        H800   1.083       .  S
C794        C795   1.407       .  A
C795        C796   1.402       .  A
C795        F802   1.356       .  S
C796        C797   1.404       .  A
C796        H801   1.083       .  S
C797        C798   1.410       .  A
C798        F799   1.358       .  S
C803        C804   1.402       .  A
C803        C808   1.402       .  A
C803        H810   1.083       .  S
C804        C805   1.407       .  A
C805        C806   1.403       .  A
C805        F812   1.357       .  S
C806        C807   1.404       .  A
C806        H811   1.082       .  S
C807        C808   1.412       .  A
C808        F809   1.358       .  S
C813        C814   1.416       .  A
C813        C818   1.401       .  A
C813        H820   1.083       .  S
C815        C816   1.398       .  A
C815        F822   1.357       .  S
C816        C817   1.410   1_554  A
C816        H821   1.084       .  S
C818        F819   1.357       .  S
C823        C824   1.417       .  A
C823        C828   1.399   1_556  A
C823        H830   1.083       .  S
C825        C826   1.405       .  A
C825        F832   1.357       .  S
C826        C827   1.397       .  A
C826        H831   1.083       .  S
C828        F829   1.357       .  S
O833        C848   1.275       .  A
O833       Al841   1.981       .  S
C834        O844   1.271       .  A
C834        O835   1.255       .  A
C834       C1035   1.483       .  S
O835       Al837   1.876       .  S
O836        C838   1.275       .  A
O836      Al1045   1.975       .  S
Al837      O1044   1.976   1_554  S
Al837       O845   1.983       .  S
Al837       O847   1.866       .  S
Al837       O846   1.757       .  S
C838       O1059   1.255       .  A
C838        C995   1.467       .  S
O839        C849   1.279       .  A
O839      Al1257   1.991   1_545  S
O840        C853   1.275       .  A
O840       Al850   1.982       .  S
Al841      O1255   1.995       .  S
Al841       O854   1.879       .  S
Al841       O851   1.853       .  S
Al841       O846   1.766       .  S
O842       C1265   1.256       .  A
O842       Al850   1.860       .  S
O843        C852   1.259       .  A
O843       Al850   1.864       .  S
O844       Al850   1.962       .  S
O845        C852   1.279       .  A
O846       Al850   1.766       .  S
O847        C848   1.254       .  A
C848       C1022   1.490       .  S
C849       O1258   1.259   1_545  A
C849       C1015   1.481       .  S
O851       C1046   1.255   1_554  A
C852       C1002   1.469       .  S
C853        O854   1.257       .  A
C853        C985   1.483       .  S
O855        C870   1.276       .  A
O855       Al863   1.981       .  S
C856        O866   1.275       .  A
C856        C955   1.488       .  S
O857       Al859   1.860       .  S
O858        C860   1.277       .  A
O858       Al859   1.984       .  S
Al859       O867   1.974       .  S
Al859       O869   1.856       .  S
Al859       O868   1.757       .  S
C860        O873   1.257       .  A
C860        C982   1.469       .  S
O861        C871   1.275       .  A
O861      Al1279   1.982       .  S
O862        C875   1.276       .  A
O862       Al872   1.982       .  S
Al863      O1277   1.979   1_545  S
Al863       O876   1.873       .  S
Al863       O873   1.870       .  S
Al863       O868   1.762       .  S
O864       C1287   1.257   1_545  A
O864       Al872   1.866       .  S
O865        C874   1.256       .  A
O865       Al872   1.872       .  S
O867        C874   1.274       .  A
O868       Al872   1.755       .  S
O869        C870   1.252       .  A
C870        C945   1.473       .  S
C871       O1280   1.259       .  A
C871        C972   1.481       .  S
C874        C965   1.473       .  S
C875        O876   1.257       .  A
C875        C992   1.473       .  S
O877        C892   1.279       .  A
O877       Al885   1.991       .  S
C878        O888   1.277       .  A
C878        O879   1.257       .  A
C878       C1012   1.474       .  S
O879       Al881   1.873       .  S
O880        C882   1.274       .  A
O880       Al881   1.972       .  S
Al881       O889   1.974       .  S
Al881       O891   1.871       .  S
Al881       O890   1.764       .  S
C882        O895   1.257       .  A
C882        C922   1.470       .  S
O883        C893   1.276       .  A
O883       Al885   1.982       .  S
O884        C897   1.275       .  A
O884       Al894   1.979       .  S
Al885       O898   1.869       .  S
Al885       O895   1.875       .  S
Al885       O890   1.759       .  S
O886        C893   1.255       .  A
O886       Al894   1.864       .  S
O887        C896   1.253       .  A
O887       Al894   1.857       .  S
O888       Al894   1.987       .  S
O889        C896   1.274       .  A
O890       Al894   1.758       .  S
O891        C892   1.259       .  A
C892       C1005   1.490       .  S
C893        C952   1.472       .  S
C896        C942   1.466       .  S
C897        O898   1.256       .  A
C897        C932   1.468       .  S
O899        C914   1.274       .  A
C900        O910   1.274       .  A
C900        O901   1.256       .  A
C900       C1032   1.482       .  S
O901       Al903   1.887       .  S
O902        C904   1.276       .  A
O902       Al903   1.980       .  S
Al903      O1119   1.978       .  S
Al903       O913   1.865       .  S
Al903       O912   1.759       .  S
C904        O917   1.256       .  A
C904        C975   1.469       .  S
O905        C915   1.277       .  A
O905       Al907   1.982       .  S
O906        C919   1.276       .  A
O906       Al916   1.982       .  S
Al907       O920   1.880       .  S
Al907       O917   1.867       .  S
Al907       O912   1.764       .  S
O908        C915   1.261       .  A
O908       Al916   1.879       .  S
O909       C1126   1.258       .  A
O909       Al916   1.862       .  S
O910       Al916   1.980       .  S
O911        C918   1.274       .  A
O911      Al1111   1.974   1_554  S
O912       Al916   1.763       .  S
C914       C1025   1.476       .  S
C915        C935   1.488       .  S
C918       O1117   1.256   1_554  A
C918        C925   1.469       .  S
C919        O920   1.260       .  A
C919        C962   1.483       .  S
C921        C922   1.404       .  A
C921        C926   1.399       .  A
C921        H928   1.083       .  S
C922        C923   1.404       .  A
C923        C924   1.398       .  A
C923        F930   1.358       .  S
C924        C925   1.404       .  A
C924        H929   1.084       .  S
C925        C926   1.405       .  A
C926        F927   1.357       .  S
C931        C932   1.404       .  A
C931        C936   1.402       .  A
C931        H938   1.084       .  S
C932        C933   1.399       .  A
C933        C934   1.399       .  A
C933        F940   1.357       .  S
C934        C935   1.412       .  A
C934        H939   1.083       .  S
C935        C936   1.409       .  A
C936        F937   1.357       .  S
C941        C942   1.411       .  A
C941        C946   1.396       .  A
C941        H948   1.084       .  S
C942        C943   1.394       .  A
C943        C944   1.395       .  A
C943        F950   1.357       .  S
C944        C945   1.414       .  A
C944        H949   1.084       .  S
C945        C946   1.398       .  A
C946        F947   1.357       .  S
C951        C952   1.407       .  A
C951        C956   1.399       .  A
C951        H958   1.084       .  S
C952        C953   1.397       .  A
C953        C954   1.402       .  A
C953        F960   1.357       .  S
C954        C955   1.416       .  A
C954        H959   1.083       .  S
C955        C956   1.404       .  A
C961        C962   1.407       .  A
C961        C966   1.399       .  A
C961        H968   1.083       .  S
C963        C964   1.398       .  A
C963        F970   1.358       .  S
C964        C965   1.404       .  A
C964        H969   1.084       .  S
C966        F967   1.358       .  S
C971        C972   1.406       .  A
C971        C976   1.405       .  A
C971        H978   1.082       .  S
C973        C974   1.401       .  A
C973        F980   1.357       .  S
C974        C975   1.403       .  A
C974        H979   1.084       .  S
C976        F977   1.357       .  S
C981        C982   1.401   1_565  A
C981       C1402   1.399       .  A
C981        H988   1.083       .  S
C982        C983   1.405       .  A
C983       C1400   1.400   1_545  A
C983        F990   1.357       .  S
C984       C1399   1.403       .  A
C984        C985   1.406       .  A
C984        H989   1.082       .  S
C985        C986   1.409       .  A
C986       C1397   1.400       .  A
C986        F987   1.357       .  S
C991        C992   1.404   1_565  A
C991       C1412   1.401       .  A
C991        H998   1.084       .  S
C992        C993   1.407       .  A
C993       C1410   1.400       .  A
C993       F1000   1.358       .  S
C994       C1409   1.400       .  A
C994        C995   1.404       .  A
C994        H999   1.084       .  S
C995        C996   1.398       .  A
C996       C1407   1.400       .  A
C996       F1205   1.357       .  S
F997       C1204   1.357       .  S
C1001      C1002   1.406       .  A
C1001      C1006   1.402       .  A
C1001      H1008   1.084       .  S
C1002      C1003   1.396       .  A
C1003      C1004   1.399       .  A
C1003      F1010   1.357       .  S
C1004      C1005   1.415       .  A
C1004      H1009   1.083       .  S
C1005      C1006   1.406       .  A
C1006      F1007   1.357       .  S
C1011      C1012   1.403       .  A
C1011      C1016   1.400       .  A
C1011      H1018   1.083       .  S
C1012      C1013   1.406       .  A
C1013      C1014   1.402       .  A
C1013      F1020   1.357       .  S
C1014      C1015   1.403       .  A
C1014      H1019   1.081       .  S
C1015      C1016   1.409       .  A
C1016      F1017   1.358       .  S
C1021      C1022   1.416       .  A
C1021      C1026   1.402   1_554  A
C1021      H1028   1.083       .  S
C1022      C1231   1.402       .  A
C1023      C1230   1.397       .  A
C1023      C1024   1.398       .  A
C1023      F1030   1.357       .  S
C1024      C1025   1.412       .  A
C1024      H1029   1.083       .  S
C1025      C1234   1.398       .  A
C1026      C1233   1.397       .  A
C1026      F1027   1.357       .  S
C1031      C1032   1.404       .  A
C1031      C1036   1.406       .  A
C1031      H1038   1.083       .  S
C1032      C1241   1.408       .  A
C1033      C1240   1.397       .  A
C1033      C1034   1.401       .  A
C1033      F1040   1.357       .  S
C1034      C1035   1.414   1_556  A
C1034      H1039   1.083       .  S
C1035      C1244   1.403       .  A
C1036      C1243   1.411       .  A
C1036      F1037   1.358       .  S
O1041      C1056   1.275       .  A
O1041     Al1049   1.973       .  S
C1042      O1052   1.275       .  A
C1042      O1043   1.254       .  A
C1042      C1243   1.484       .  S
O1043     Al1045   1.881       .  S
O1044      C1046   1.277       .  A
Al1045     O1053   1.996       .  S
Al1045     O1055   1.859       .  S
Al1045     O1054   1.759       .  S
C1046      C1203   1.473       .  S
O1047      C1057   1.276       .  A
O1047     Al1465   1.982   1_545  S
O1048      C1061   1.275       .  A
O1048     Al1058   1.977       .  S
Al1049     O1463   1.985       .  S
Al1049     O1062   1.880       .  S
Al1049     O1059   1.865       .  S
Al1049     O1054   1.761       .  S
O1050      C1473   1.259       .  A
O1050     Al1058   1.867       .  S
O1051      C1060   1.256       .  A
O1051     Al1058   1.855       .  S
O1052     Al1058   1.985       .  S
O1053      C1060   1.281       .  A
O1054     Al1058   1.758       .  S
O1055      C1056   1.255       .  A
C1056      C1230   1.475       .  S
C1057      O1466   1.259   1_545  A
C1057      C1223   1.475       .  S
C1060      C1210   1.483       .  S
C1061      O1062   1.257       .  A
C1061      C1193   1.484       .  S
O1063      C1078   1.276       .  A
O1063     Al1071   1.974       .  S
C1064      O1074   1.275       .  A
C1064      C1163   1.471       .  S
O1065     Al1067   1.883       .  S
O1066      C1068   1.273       .  A
O1066     Al1067   1.964       .  S
Al1067     O1075   1.987       .  S
Al1067     O1077   1.867       .  S
Al1067     O1076   1.761       .  S
C1068      O1081   1.255       .  A
C1068      C1190   1.467       .  S
O1069      C1079   1.276       .  A
O1069     Al1487   1.979       .  S
O1070      C1083   1.273       .  A
O1070     Al1080   1.973       .  S
Al1071     O1485   1.987   1_545  S
Al1071     O1084   1.871       .  S
Al1071     O1081   1.861       .  S
Al1071     O1076   1.763       .  S
O1072      C1495   1.260   1_545  A
O1072     Al1080   1.874       .  S
O1073      C1082   1.260       .  A
O1073     Al1080   1.872       .  S
O1075      C1082   1.279       .  A
O1076     Al1080   1.766       .  S
O1077      C1078   1.257       .  A
C1078      C1153   1.488       .  S
C1079      O1488   1.257       .  A
C1079      C1180   1.468       .  S
C1082      C1173   1.479       .  S
C1083      O1084   1.255       .  A
C1083      C1200   1.481       .  S
O1085      C1100   1.271       .  A
O1085     Al1093   1.967       .  S
C1086      O1096   1.275       .  A
C1086      O1087   1.256       .  A
C1086      C1220   1.483       .  S
O1087     Al1089   1.875       .  S
O1088      C1090   1.277       .  A
O1088     Al1089   1.978       .  S
Al1089     O1097   1.980       .  S
Al1089     O1099   1.882       .  S
Al1089     O1098   1.760       .  S
C1090      O1103   1.258       .  A
C1090      C1130   1.470       .  S
O1091      C1101   1.275       .  A
O1091     Al1093   1.978       .  S
O1092      C1105   1.278       .  A
O1092     Al1102   1.992       .  S
Al1093     O1106   1.874       .  S
Al1093     O1103   1.864       .  S
Al1093     O1098   1.769       .  S
O1094      C1101   1.256       .  A
O1094     Al1102   1.868       .  S
O1095      C1104   1.257       .  A
O1095     Al1102   1.867       .  S
O1096     Al1102   1.979       .  S
O1097      C1104   1.277       .  A
O1098     Al1102   1.762       .  S
O1099      C1100   1.256       .  A
C1100      C1213   1.468       .  S
C1101      C1160   1.482       .  S
C1104      C1150   1.478       .  S
C1105      O1106   1.257       .  A
C1105      C1140   1.475       .  S
O1107      C1122   1.279       .  A
C1108      O1118   1.276       .  A
C1108      O1109   1.255       .  A
C1108      C1240   1.471       .  S
O1109     Al1111   1.861       .  S
O1110      C1112   1.276       .  A
O1110     Al1111   1.977       .  S
Al1111     O1121   1.866       .  S
Al1111     O1120   1.761       .  S
C1112      O1125   1.258       .  A
C1112      C1183   1.468       .  S
O1113      C1123   1.277       .  A
O1113     Al1115   1.986       .  S
O1114      C1127   1.277       .  A
O1114     Al1124   1.986       .  S
Al1115     O1128   1.868       .  S
Al1115     O1125   1.872       .  S
Al1115     O1120   1.760       .  S
O1116      C1123   1.258       .  A
O1116     Al1124   1.876       .  S
O1117     Al1124   1.868       .  S
O1118     Al1124   1.980       .  S
O1119      C1126   1.279       .  A
O1120     Al1124   1.760       .  S
C1122      C1233   1.482       .  S
C1123      C1143   1.487       .  S
C1126      C1133   1.482       .  S
C1127      O1128   1.257       .  A
C1127      C1170   1.481       .  S
C1129      C1130   1.408       .  A
C1129      C1134   1.399       .  A
C1129      H1136   1.084       .  S
C1130      C1131   1.395       .  A
C1131      C1132   1.399       .  A
C1131      F1138   1.357       .  S
C1132      C1133   1.415       .  A
C1132      H1137   1.083       .  S
C1133      C1134   1.402       .  A
C1134      F1135   1.357       .  S
C1139      C1140   1.401       .  A
C1139      C1144   1.401       .  A
C1139      H1146   1.084       .  S
C1140      C1141   1.407       .  A
C1141      C1142   1.402       .  A
C1141      F1148   1.356       .  S
C1142      C1143   1.405       .  A
C1142      H1147   1.083       .  S
C1143      C1144   1.412       .  A
C1144      F1145   1.358       .  S
C1149      C1150   1.410       .  A
C1149      C1154   1.401       .  A
C1149      H1156   1.084       .  S
C1150      C1151   1.397       .  A
C1151      C1152   1.401       .  A
C1151      F1158   1.357       .  S
C1152      C1153   1.415       .  A
C1152      H1157   1.084       .  S
C1153      C1154   1.403       .  A
C1154      F1155   1.357       .  S
C1159      C1160   1.414       .  A
C1159      C1164   1.398       .  A
C1159      H1166   1.083       .  S
C1160      C1161   1.402       .  A
C1161      C1162   1.399       .  A
C1161      F1168   1.358       .  S
C1162      C1163   1.409       .  A
C1162      H1167   1.084       .  S
C1163      C1164   1.395       .  A
C1169      C1170   1.409       .  A
C1169      C1174   1.398       .  A
C1169      H1176   1.083       .  S
C1171      C1172   1.400       .  A
C1171      F1178   1.357       .  S
C1172      C1173   1.407       .  A
C1172      H1177   1.084       .  S
C1174      F1175   1.357       .  S
C1179      C1180   1.405       .  A
C1179      C1184   1.401       .  A
C1179      H1186   1.084       .  S
C1181      C1182   1.397       .  A
C1181      F1188   1.358       .  S
C1182      C1183   1.399       .  A
C1182      H1187   1.084       .  S
C1184      F1185   1.357       .  S
C1189      C1190   1.393       .  A
C1189      C1610   1.397   1_545  A
C1189      H1196   1.083       .  S
C1190      C1191   1.409   1_545  A
C1191      C1608   1.399       .  A
C1191      F1198   1.358   1_565  S
C1192      C1607   1.398       .  A
C1192      C1193   1.403       .  A
C1192      H1197   1.083       .  S
C1193      C1194   1.414       .  A
C1194      C1605   1.403       .  A
C1194      F1195   1.358       .  S
C1199      C1200   1.414       .  A
C1199      C1620   1.400   1_545  A
C1199      H1206   1.083       .  S
C1200      C1201   1.402       .  A
C1201      C1618   1.397   1_545  A
C1201      F1208   1.357       .  S
C1202      C1617   1.399       .  A
C1202      C1203   1.410       .  A
C1202      H1207   1.084   1_556  S
C1203      C1204   1.397       .  A
C1204      C1615   1.398       .  A
C1209      C1210   1.414       .  A
C1209      C1214   1.398       .  A
C1209      H1216   1.083       .  S
C1210      C1211   1.404       .  A
C1211      C1212   1.400       .  A
C1211      F1218   1.357       .  S
C1212      C1213   1.407       .  A
C1212      H1217   1.082       .  S
C1213      C1214   1.397       .  A
C1214      F1215   1.357       .  S
C1219      C1220   1.409       .  A
C1219      C1224   1.402       .  A
C1219      H1226   1.083       .  S
C1220      C1221   1.407       .  A
C1221      C1222   1.402       .  A
C1221      F1228   1.357       .  S
C1222      C1223   1.405       .  A
C1222      H1227   1.084       .  S
C1223      C1224   1.403       .  A
C1224      F1225   1.357       .  S
C1229      C1230   1.412       .  A
C1229      C1234   1.399       .  A
C1229      H1236   1.084       .  S
C1231      C1232   1.403       .  A
C1231      F1238   1.357       .  S
C1232      C1233   1.412   1_554  A
C1232      H1237   1.083       .  S
C1234      F1235   1.357       .  S
C1239      C1240   1.407   1_554  A
C1239      C1244   1.397       .  A
C1239      H1246   1.084       .  S
C1241      C1242   1.400       .  A
C1241      F1248   1.354       .  S
C1242      C1243   1.402       .  A
C1242      H1247   1.083       .  S
C1244      F1245   1.358       .  S
O1249      C1264   1.273       .  A
O1249     Al1257   1.975       .  S
C1250      O1260   1.271       .  A
C1250      O1251   1.252       .  A
C1250      C1451   1.471       .  S
O1251     Al1253   1.867       .  S
O1252      C1254   1.275       .  A
O1252     Al1461   1.976       .  S
Al1253     O1460   1.977   1_554  S
Al1253     O1261   1.982       .  S
Al1253     O1263   1.866       .  S
Al1253     O1262   1.760       .  S
C1254      O1475   1.256       .  A
C1254      C1411   1.473       .  S
O1255      C1265   1.280       .  A
O1256      C1269   1.275       .  A
O1256     Al1266   1.977       .  S
Al1257     O1270   1.879       .  S
Al1257     O1267   1.852       .  S
Al1257     O1262   1.763       .  S
O1258     Al1266   1.874       .  S
O1259      C1268   1.256       .  A
O1259     Al1266   1.851       .  S
O1260     Al1266   1.971       .  S
O1261      C1268   1.279       .  A
O1262     Al1266   1.766       .  S
O1263      C1264   1.253       .  A
C1264      C1438   1.482       .  S
C1265      C1431   1.481       .  S
O1267      C1462   1.256   1_554  A
C1268      C1418   1.473       .  S
C1269      O1270   1.258       .  A
C1269      C1401   1.481       .  S
O1271      C1286   1.275       .  A
O1271     Al1279   1.977       .  S
C1272      O1282   1.275       .  A
C1272      C1371   1.468       .  S
O1273     Al1275   1.861       .  S
O1274      C1276   1.277       .  A
O1274     Al1275   1.986       .  S
Al1275     O1283   1.982       .  S
Al1275     O1285   1.865       .  S
Al1275     O1284   1.762       .  S
C1276      O1289   1.257       .  A
C1276      C1398   1.473       .  S
O1277      C1287   1.276       .  A
O1278      C1291   1.278       .  A
O1278     Al1288   1.982       .  S
Al1279     O1292   1.872       .  S
Al1279     O1289   1.872       .  S
Al1279     O1284   1.764       .  S
O1280     Al1288   1.883       .  S
O1281      C1290   1.257       .  A
O1281     Al1288   1.874       .  S
O1283      C1290   1.276       .  A
O1284     Al1288   1.763       .  S
O1285      C1286   1.255       .  A
C1286      C1361   1.476       .  S
C1287      C1388   1.479       .  S
C1290      C1381   1.474       .  S
C1291      O1292   1.259       .  A
C1291      C1408   1.487       .  S
O1293      C1308   1.276       .  A
O1293     Al1301   1.980       .  S
C1294      O1304   1.274       .  A
C1294      O1295   1.257       .  A
C1294      C1428   1.462       .  S
O1295     Al1297   1.867       .  S
O1296      C1298   1.276       .  A
O1296     Al1297   1.983       .  S
Al1297     O1305   1.979       .  S
Al1297     O1307   1.857       .  S
Al1297     O1306   1.759       .  S
C1298      O1311   1.257       .  A
C1298      C1338   1.479       .  S
O1299      C1309   1.277       .  A
O1299     Al1301   1.977       .  S
O1300      C1313   1.274       .  A
O1300     Al1310   1.974       .  S
Al1301     O1314   1.865       .  S
Al1301     O1311   1.879       .  S
Al1301     O1306   1.762       .  S
O1302      C1309   1.253       .  A
O1302     Al1310   1.859       .  S
O1303      C1312   1.255       .  A
O1303     Al1310   1.864       .  S
O1304     Al1310   1.971       .  S
O1305      C1312   1.276       .  A
O1306     Al1310   1.757       .  S
O1307      C1308   1.255       .  A
C1308      C1421   1.465       .  S
C1309      C1368   1.482       .  S
C1312      C1358   1.477       .  S
C1313      O1314   1.255       .  A
C1313      C1348   1.464       .  S
O1315      C1330   1.273       .  A
C1316      O1326   1.274       .  A
C1316      O1317   1.254       .  A
C1316      C1448   1.480       .  S
O1317     Al1319   1.882       .  S
O1318      C1320   1.277       .  A
O1318     Al1319   1.987       .  S
Al1319     O1535   1.984       .  S
Al1319     O1329   1.862       .  S
Al1319     O1328   1.759       .  S
C1320      O1333   1.256       .  A
C1320      C1391   1.477       .  S
O1321      C1331   1.276       .  A
O1321     Al1323   1.977       .  S
O1322      C1335   1.278       .  A
O1322     Al1332   1.989       .  S
Al1323     O1336   1.887       .  S
Al1323     O1333   1.870       .  S
Al1323     O1328   1.764       .  S
O1324      C1331   1.259       .  A
O1324     Al1332   1.874       .  S
O1325      C1542   1.257       .  A
O1325     Al1332   1.855       .  S
O1326     Al1332   1.985       .  S
O1327      C1334   1.276       .  A
O1327     Al1527   1.983   1_554  S
O1328     Al1332   1.764       .  S
C1330      C1441   1.477       .  S
C1331      C1351   1.482       .  S
C1334      O1533   1.258   1_554  A
C1334      C1341   1.475       .  S
C1335      O1336   1.261       .  A
C1335      C1378   1.489       .  S
C1337      C1338   1.406       .  A
C1337      C1342   1.402       .  A
C1337      H1344   1.083       .  S
C1338      C1339   1.407       .  A
C1339      C1340   1.400       .  A
C1339      F1346   1.357       .  S
C1340      C1341   1.404       .  A
C1340      H1345   1.083       .  S
C1341      C1342   1.406       .  A
C1342      F1343   1.357       .  S
C1347      C1348   1.403       .  A
C1347      C1352   1.400       .  A
C1347      H1354   1.084       .  S
C1348      C1349   1.399       .  A
C1349      C1350   1.397       .  A
C1349      F1356   1.357       .  S
C1350      C1351   1.410       .  A
C1350      H1355   1.083       .  S
C1351      C1352   1.408       .  A
C1352      F1353   1.357       .  S
C1357      C1358   1.412       .  A
C1357      C1362   1.398       .  A
C1357      H1364   1.084       .  S
C1358      C1359   1.399       .  A
C1359      C1360   1.399       .  A
C1359      F1366   1.357       .  S
C1360      C1361   1.412       .  A
C1360      H1365   1.084       .  S
C1361      C1362   1.398       .  A
C1362      F1363   1.357       .  S
C1367      C1368   1.399       .  A
C1367      C1372   1.395       .  A
C1367      H1374   1.083       .  S
C1368      C1369   1.420       .  A
C1369      C1370   1.398       .  A
C1369      F1376   1.358       .  S
C1370      C1371   1.393       .  A
C1370      H1375   1.083       .  S
C1371      C1372   1.410       .  A
C1377      C1378   1.406       .  A
C1377      C1382   1.404       .  A
C1377      H1384   1.083       .  S
C1379      C1380   1.404       .  A
C1379      F1386   1.357       .  S
C1380      C1381   1.406   1_455  A
C1380      H1385   1.084       .  S
C1382      F1383   1.357       .  S
C1387      C1388   1.414   1_455  A
C1387      C1392   1.398       .  A
C1387      H1394   1.083       .  S
C1389      C1390   1.401       .  A
C1389      F1396   1.358       .  S
C1390      C1391   1.404       .  A
C1390      H1395   1.084       .  S
C1392      F1393   1.357       .  S
C1397      C1398   1.402       .  A
C1397      H1404   1.083       .  S
C1398      C1399   1.406       .  A
C1399      F1406   1.358       .  S
C1400      C1401   1.404       .  A
C1400      H1405   1.082   1_565  S
C1401      C1402   1.410       .  A
C1402      F1403   1.358       .  S
C1407      C1408   1.414       .  A
C1407      H1414   1.083       .  S
C1408      C1409   1.407       .  A
C1409      F1416   1.357       .  S
C1410      C1411   1.403   1_545  A
C1410      H1415   1.083       .  S
C1411      C1412   1.407       .  A
C1412      F1621   1.357       .  S
F1413      C1620   1.357       .  S
C1417      C1418   1.414       .  A
C1417      C1422   1.396       .  A
C1417      H1424   1.083       .  S
C1418      C1419   1.398       .  A
C1419      C1420   1.396       .  A
C1419      F1426   1.357       .  S
C1420      C1421   1.410       .  A
C1420      H1425   1.083       .  S
C1421      C1422   1.394       .  A
C1422      F1423   1.357       .  S
C1427      C1428   1.395       .  A
C1427      C1432   1.395       .  A
C1427      H1434   1.084       .  S
C1428      C1429   1.406       .  A
C1429      C1430   1.400       .  A
C1429      F1436   1.357       .  S
C1430      C1431   1.404       .  A
C1430      H1435   1.083       .  S
C1431      C1432   1.415       .  A
C1432      F1433   1.358       .  S
C1437      C1438   1.413       .  A
C1437      C1442   1.402   1_554  A
C1437      H1444   1.083   1_554  S
C1438      C1647   1.398       .  A
C1439      C1646   1.417       .  A
C1439      C1440   1.399       .  A
C1439      F1446   1.358       .  S
C1440      C1441   1.396       .  A
C1440      H1445   1.083       .  S
C1441      C1650   1.414       .  A
C1442      C1649   1.400       .  A
C1442      F1443   1.357       .  S
C1447      C1448   1.403       .  A
C1447      C1452   1.405       .  A
C1447      H1454   1.083       .  S
C1448      C1657   1.408       .  A
C1449      C1656   1.404       .  A
C1449      C1450   1.398       .  A
C1449      F1456   1.357       .  S
C1450      C1451   1.407   1_556  A
C1450      H1455   1.083   1_556  S
C1451      C1660   1.396       .  A
C1452      C1659   1.411       .  A
C1452      F1453   1.357       .  S
O1457      C1472   1.277       .  A
O1457     Al1465   1.979       .  S
C1458      O1468   1.277       .  A
C1458      O1459   1.257       .  A
C1458      C1659   1.483       .  S
O1459     Al1461   1.879       .  S
O1460      C1462   1.277       .  A
Al1461     O1469   1.982       .  S
Al1461     O1471   1.864       .  S
Al1461     O1470   1.759       .  S
C1462      C1619   1.469       .  S
O1463      C1473   1.278       .  A
O1464      C1477   1.277       .  A
O1464     Al1474   1.986       .  S
Al1465     O1478   1.863       .  S
Al1465     O1475   1.874       .  S
Al1465     O1470   1.757       .  S
O1466     Al1474   1.883       .  S
O1467      C1476   1.259       .  A
O1467     Al1474   1.874       .  S
O1468     Al1474   1.984       .  S
O1469      C1476   1.277       .  A
O1470     Al1474   1.762       .  S
O1471      C1472   1.255       .  A
C1472      C1646   1.481       .  S
C1473      C1639   1.474       .  S
C1476      C1626   1.483       .  S
C1477      O1478   1.254       .  A
C1477      C1609   1.485       .  S
O1479      C1494   1.277       .  A
O1479     Al1487   1.980       .  S
C1480      O1490   1.277       .  A
C1480      C1579   1.488       .  S
O1481     Al1483   1.881       .  S
O1482      C1484   1.275       .  A
O1482     Al1483   1.976       .  S
Al1483     O1491   1.984       .  S
Al1483     O1493   1.863       .  S
Al1483     O1492   1.762       .  S
C1484      O1497   1.255       .  A
C1484      C1606   1.470       .  S
O1485      C1495   1.278       .  A
O1486      C1499   1.275       .  A
O1486     Al1496   1.973       .  S
Al1487     O1500   1.869       .  S
Al1487     O1497   1.874       .  S
Al1487     O1492   1.761       .  S
O1488     Al1496   1.871       .  S
O1489      C1498   1.256       .  A
O1489     Al1496   1.859       .  S
O1491      C1498   1.277       .  A
O1492     Al1496   1.764       .  S
O1493      C1494   1.256       .  A
C1494      C1569   1.482       .  S
C1495      C1596   1.473       .  S
C1498      C1589   1.471       .  S
C1499      O1500   1.257       .  A
C1499      C1616   1.478       .  S
O1501      C1516   1.276       .  A
O1501     Al1509   1.979       .  S
C1502      O1512   1.277       .  A
C1502      O1503   1.257       .  A
C1502      C1636   1.469       .  S
O1503     Al1505   1.865       .  S
O1504      C1506   1.275       .  A
O1504     Al1505   1.979       .  S
Al1505     O1513   1.976       .  S
Al1505     O1515   1.881       .  S
Al1505     O1514   1.767       .  S
C1506      O1519   1.256       .  A
C1506      C1546   1.474       .  S
O1507      C1517   1.273       .  A
O1507     Al1509   1.974       .  S
O1508      C1521   1.276       .  A
O1508     Al1518   1.974       .  S
Al1509     O1522   1.853       .  S
Al1509     O1519   1.868       .  S
Al1509     O1514   1.764       .  S
O1510      C1517   1.255       .  A
O1510     Al1518   1.877       .  S
O1511      C1520   1.255       .  A
O1511     Al1518   1.867       .  S
O1512     Al1518   1.981       .  S
O1513      C1520   1.274       .  A
O1514     Al1518   1.763       .  S
O1515      C1516   1.259       .  A
C1516      C1629   1.470       .  S
C1517      C1576   1.474       .  S
C1520      C1566   1.477       .  S
C1521      O1522   1.255       .  A
C1521      C1556   1.470       .  S
O1523      C1538   1.279       .  A
C1524      O1534   1.277       .  A
C1524      O1525   1.256       .  A
C1524      C1656   1.486       .  S
O1525     Al1527   1.869       .  S
O1526      C1528   1.274       .  A
O1526     Al1527   1.976       .  S
Al1527     O1537   1.859       .  S
Al1527     O1536   1.761       .  S
C1528      O1541   1.257       .  A
C1528      C1599   1.477       .  S
O1529      C1539   1.278       .  A
O1529     Al1531   1.983       .  S
O1530      C1543   1.275       .  A
O1530     Al1540   1.981       .  S
Al1531     O1544   1.887       .  S
Al1531     O1541   1.882       .  S
Al1531     O1536   1.763       .  S
O1532      C1539   1.256       .  A
O1532     Al1540   1.862       .  S
O1533     Al1540   1.875       .  S
O1534     Al1540   1.982       .  S
O1535      C1542   1.280       .  A
O1536     Al1540   1.760       .  S
C1538      C1649   1.483       .  S
C1539      C1559   1.478       .  S
C1542      C1549   1.476       .  S
C1543      O1544   1.259       .  A
C1543      C1586   1.479       .  S
C1545      C1546   1.411       .  A
C1545      C1550   1.397       .  A
C1545      H1552   1.083       .  S
C1546      C1547   1.397       .  A
C1547      C1548   1.400       .  A
C1547      F1554   1.357       .  S
C1548      C1549   1.413       .  A
C1548      H1553   1.083       .  S
C1549      C1550   1.397       .  A
C1550      F1551   1.357       .  S
C1555      C1556   1.410       .  A
C1555      C1560   1.399       .  A
C1555      H1562   1.083       .  S
C1556      C1557   1.395       .  A
C1557      C1558   1.397       .  A
C1557      F1564   1.357       .  S
C1558      C1559   1.414       .  A
C1558      H1563   1.083       .  S
C1559      C1560   1.399       .  A
C1560      F1561   1.357       .  S
C1565      C1566   1.411       .  A
C1565      C1570   1.400       .  A
C1565      H1572   1.084       .  S
C1566      C1567   1.397       .  A
C1567      C1568   1.399       .  A
C1567      F1574   1.357       .  S
C1568      C1569   1.414       .  A
C1568      H1573   1.084       .  S
C1569      C1570   1.401       .  A
C1570      F1571   1.357       .  S
C1575      C1576   1.399       .  A
C1575      C1580   1.405       .  A
C1575      H1582   1.083       .  S
C1576      C1577   1.407       .  A
C1577      C1578   1.398       .  A
C1577      F1584   1.356       .  S
C1578      C1579   1.402       .  A
C1578      H1583   1.083       .  S
C1579      C1580   1.417       .  A
C1585      C1586   1.407       .  A
C1585      C1590   1.406       .  A
C1585      H1592   1.084       .  S
C1587      C1588   1.398       .  A
C1587      F1594   1.357       .  S
C1588      C1589   1.411   1_455  A
C1588      H1593   1.084       .  S
C1590      F1591   1.357       .  S
C1595      C1596   1.406       .  A
C1595      C1600   1.403       .  A
C1595      H1602   1.083       .  S
C1597      C1598   1.402       .  A
C1597      F1604   1.358       .  S
C1598      C1599   1.404       .  A
C1598      H1603   1.083       .  S
C1600      F1601   1.358       .  S
C1605      C1606   1.400       .  A
C1605      H1612   1.083       .  S
C1606      C1607   1.406       .  A
C1607      F1614   1.356       .  S
C1608      C1609   1.401       .  A
C1608      H1613   1.083       .  S
C1609      C1610   1.420       .  A
C1610      F1611   1.358       .  S
C1615      C1616   1.413       .  A
C1615      H1622   1.083       .  S
C1616      C1617   1.400       .  A
C1617      F1624   1.358       .  S
C1618      C1619   1.408       .  A
C1618      H1623   1.084       .  S
C1619      C1620   1.396       .  A
C1625      C1626   1.410       .  A
C1625      C1630   1.400       .  A
C1625      H1632   1.083       .  S
C1626      C1627   1.406       .  A
C1627      C1628   1.401       .  A
C1627      F1634   1.356       .  S
C1628      C1629   1.405       .  A
C1628      H1633   1.084       .  S
C1629      C1630   1.401       .  A
C1630      F1631   1.357       .  S
C1635      C1636   1.401       .  A
C1635      C1640   1.396       .  A
C1635      H1642   1.084       .  S
C1636      C1637   1.407       .  A
C1637      C1638   1.402       .  A
C1637      F1644   1.357       .  S
C1638      C1639   1.404       .  A
C1638      H1643   1.082       .  S
C1639      C1640   1.407       .  A
C1640      F1641   1.358       .  S
C1645      C1646   1.398       .  A
C1645      C1650   1.399       .  A
C1645      H1652   1.083       .  S
C1647      C1648   1.400       .  A
C1647      F1654   1.357       .  S
C1648      C1649   1.414   1_554  A
C1648      H1653   1.083   1_655  S
C1650      F1651   1.357   1_655  S
C1655      C1656   1.416       .  A
C1655      C1660   1.401   1_556  A
C1655      H1662   1.083       .  S
C1657      C1658   1.400       .  A
C1657      F1664   1.355       .  S
C1658      C1659   1.401       .  A
C1658      H1663   1.083       .  S
C1660      F1661   1.357       .  S
