geometry optimzed in LAMMPS
_audit_creation_date              2020-11-30 
_audit_creation_method            'lammps2cif' 
_symmetry_space_group_name_H-M    'P1' 
_symmetry_Int_Tables_number       1 
_symmetry_cell_setting            triclinic 
loop_ 
_symmetry_equiv_pos_as_xyz 
  x,y,z 
_cell_length_a                    49.0788357 
_cell_length_b                    48.85865907990138 
_cell_length_c                    155.16347259570367 
_cell_angle_alpha                 89.89182849212504 
_cell_angle_beta                  90.0118377979788 
_cell_angle_gamma                 89.92895572152881 
loop_ 
_atom_site_label 
_atom_site_type_symbol 
_atom_site_fract_x 
_atom_site_fract_y 
_atom_site_fract_z 
_atom_site_charge 
C1          C  0.16936617  0.71324634  0.79827084     0.86200
C2          C  0.14944307  0.71968004  0.80570341    -0.54100
C3          C  0.15751538  0.70968303  0.81354027     0.09100
C4          C  0.18463343  0.69378845  0.81320869     0.20100
C5          C  0.19693633  0.72420621  0.80146274    -0.54800
C6          C  0.20507899  0.71441529  0.80934025     0.09200
C7          C  0.17245461  0.68204638  0.79848089    -0.54300
C8          C  0.18077582  0.67163790  0.80622105     0.09800
H9          H  0.13132890  0.73213532  0.80509700     0.14300
H10         H  0.19029886  0.68520179  0.81956062     0.00000
H11         H  0.20881104  0.73852094  0.79766689     0.14600
H12         H  0.16971434  0.66947844  0.79278295     0.14400
In13       In  0.46055458  0.81493194  0.85684532     1.36900
C14         C  0.41620810  0.79799134  0.84850170     0.77300
O15         O  0.48314299  0.80459044  0.84462342    -0.61200
O16         O  0.50055153  0.79183110  0.85643425    -0.52100
C17         C  0.47361384  0.86830230  0.85775718     0.69900
O18         O  0.46007862  0.85804224  0.85167846    -0.46900
C19         C  0.44350639  0.79713068  0.87227410     0.74600
O20         O  0.42020078  0.82271621  0.85043584    -0.58800
O21         O  0.46431085  0.78757077  0.86856493    -0.48900
O22         O  0.43512713  0.78202206  0.85074049    -0.55200
C23         C  0.50211073  0.79171493  0.84831640     0.84800
O24         O  0.48128999  0.85105241  0.86331243    -0.57100
O25         O  0.43232924  0.81660063  0.86827490    -0.60400
In26       In  0.52878710  0.17961148  0.85949564     1.36900
C27         C  0.57342471  0.19063236  0.85019004     0.77300
O28         O  0.50069941  0.18780239  0.84830495    -0.61200
O29         O  0.49326777  0.20958939  0.85981401    -0.52100
C30         C  0.51791250  0.12540011  0.85950436     0.69900
O31         O  0.53905544  0.13564765  0.85622764    -0.46900
C32         C  0.54200052  0.20033987  0.87504758     0.74600
O33         O  0.57415318  0.17695093  0.85709016    -0.58800
O34         O  0.54356137  0.21369189  0.86811725    -0.48900
O35         O  0.54986755  0.19818153  0.84801214    -0.55200
C36         C  0.48675498  0.20592312  0.85203135     0.84800
O37         O  0.50211787  0.14292043  0.86278823    -0.57100
O38         O  0.53277617  0.17644060  0.87409732    -0.60400
C39         C  0.82099495  0.27339482  0.79953508     0.86200
C40         C  0.84089801  0.26778655  0.80706682    -0.54100
C41         C  0.83206636  0.27713271  0.81490261     0.09100
C42         C  0.80419100  0.29159822  0.81447653     0.20100
C43         C  0.79397438  0.26067015  0.80264638    -0.54800
C44         C  0.78513655  0.27010716  0.81046596     0.09200
C45         C  0.81604578  0.30442213  0.79979175    -0.54300
C46         C  0.80701285  0.31406998  0.80754344     0.09800
H47         H  0.85970928  0.25639118  0.80650028     0.14300
H48         H  0.79700551  0.29948405  0.82077959     0.00000
H49         H  0.78319698  0.24503012  0.79904175     0.14600
H50         H  0.81821703  0.31742013  0.79414712     0.14400
In51       In  0.08837353  0.83373954  0.71034172     1.36900
C52         C  0.06241216  0.88166064  0.71016279     0.77300
O53         O  0.12985948  0.85212609  0.70816109    -0.61200
O54         O  0.11039552  0.83387964  0.69748056    -0.52100
C55         C  0.10787883  0.81099643  0.72473318     0.69900
O56         O  0.09639251  0.83406694  0.72452799    -0.46900
C57         C  0.04708548  0.79954699  0.70717792     0.74600
O58         O  0.07572672  0.87323890  0.71659772    -0.58800
O59         O  0.06973812  0.79752450  0.70335278    -0.48900
O60         O  0.06291920  0.86577465  0.70377067    -0.55200
C61         C  0.13074050  0.84701629  0.70021714     0.84800
O62         O  0.10983165  0.79949167  0.71747590    -0.57100
O63         O  0.04605564  0.81852760  0.71264427    -0.60400
In64       In  0.90765613  0.15423164  0.71162650     1.36900
C65         C  0.93211732  0.10557392  0.71095811     0.77300
O66         O  0.86669712  0.13464133  0.70952705    -0.61200
O67         O  0.88473562  0.15526385  0.69897726    -0.52100
C68         C  0.88937529  0.17739858  0.72616917     0.69900
O69         O  0.90320260  0.15564339  0.72604639    -0.46900
C70         C  0.94877588  0.18823802  0.70789377     0.74600
O71         O  0.92007315  0.11417230  0.71761141    -0.58800
O72         O  0.92559748  0.19050138  0.70441763    -0.48900
O73         O  0.93130845  0.12178536  0.70463428    -0.55200
C74         C  0.86516061  0.14084822  0.70165357     0.84800
O75         O  0.88432026  0.18710545  0.71879108    -0.57100
O76         O  0.95045273  0.16909640  0.71331162    -0.60400
C77         C  0.32449426  0.71280143  0.95672343     0.86200
C78         C  0.34366317  0.71907626  0.94910061    -0.54100
C79         C  0.33430625  0.71023088  0.94127151     0.09100
C80         C  0.30658655  0.69536830  0.94184259     0.20100
C81         C  0.29702088  0.72521272  0.95395871    -0.54800
C82         C  0.28730855  0.71632477  0.94616845     0.09200
C83         C  0.32010275  0.68174863  0.95632442    -0.54300
C84         C  0.31039276  0.67245612  0.94861724     0.09800
H85         H  0.36276827  0.72988409  0.94966161     0.14300
H86         H  0.29960905  0.68771137  0.93552329     0.00000
H87         H  0.28615412  0.73944023  0.95806223     0.14600
H88         H  0.32291354  0.66848320  0.96188006     0.14400
In89       In  0.03304361  0.81475901  0.89777805     1.36900
C90         C  0.07498385  0.79777095  0.90737317     0.77300
O91         O  0.00371576  0.80940534  0.90888176    -0.61200
O92         O  0.00086343  0.78198167  0.89842544    -0.52100
C93         C  0.01919456  0.86789792  0.89686651     0.69900
O94         O  0.03804744  0.85874454  0.90154821    -0.46900
C95         C  0.05014747  0.80076161  0.88201647     0.74600
O96         O  0.06820324  0.82255542  0.90674665    -0.58800
O97         O  0.02661593  0.79544760  0.88478333    -0.48900
O98         O  0.06017645  0.78162854  0.90313169    -0.55200
C99         C  0.99207384  0.78875500  0.90573127     0.84800
O100        O  0.00715238  0.84975480  0.89251856    -0.57100
O101        O  0.06437768  0.81486107  0.88710583    -0.60400
C102        C  0.66673026  0.28719177  0.95854294     0.86200
C103        C  0.64625550  0.28124781  0.95129774    -0.54100
C104        C  0.65461346  0.28928582  0.94327279     0.09100
C105        C  0.68278803  0.30337137  0.94328761     0.20100
C106        C  0.69355300  0.27410875  0.95549396    -0.54800
C107        C  0.70197844  0.28206342  0.94746664     0.09200
C108        C  0.67212168  0.31813867  0.95789339    -0.54300
C109        C  0.68052590  0.32685748  0.94994239     0.09800
H110        H  0.62746195  0.27007119  0.95239963     0.14300
H111        H  0.68908510  0.31031595  0.93678906     0.00000
H112        H  0.70475651  0.25958320  0.95943748     0.14600
H113        H  0.67097461  0.33206104  0.96327877     0.14400
In114      In  0.95623059  0.17641063  0.90026672     1.36900
C115        C  0.91159179  0.19177945  0.90886876     0.77300
O116        O  0.97785063  0.18973399  0.91230824    -0.61200
O117        O  0.99711349  0.19826620  0.90042751    -0.52100
C118        C  0.97067008  0.12334128  0.89955948     0.69900
O119        O  0.95712025  0.13349881  0.90566129    -0.46900
C120        C  0.93883308  0.19388584  0.88481197     0.74600
O121        O  0.91665393  0.16710141  0.90709807    -0.58800
O122        O  0.95735086  0.20574331  0.88901546    -0.48900
O123        O  0.92929283  0.20840982  0.90620056    -0.55200
C124        C  0.99763111  0.20087576  0.90851663     0.84800
O125        O  0.97778822  0.14057982  0.89393302    -0.57100
O126        O  0.93007027  0.17237220  0.88834359    -0.60400
In127      In  0.39952044  0.83388349  0.04505574     1.36900
C128        C  0.42677495  0.88107911  0.04500832     0.77300
O129        O  0.35901020  0.85492915  0.04667871    -0.61200
O130        O  0.37506144  0.83399356  0.05747051    -0.52100
C131        C  0.37989595  0.81141183  0.03067708     0.69900
O132        O  0.38892714  0.83549197  0.03104848    -0.46900
C133        C  0.43928339  0.79824267  0.04892272     0.74600
O134        O  0.41786879  0.87001886  0.03824840    -0.58800
O135        O  0.41720869  0.79917203  0.05310093    -0.48900
O136        O  0.42201621  0.86777031  0.05181103    -0.55200
C137        C  0.35629283  0.84901827  0.05453226     0.84800
O138        O  0.37978878  0.79893931  0.03781663    -0.57100
O139        O  0.44064133  0.81527716  0.04283773    -0.60400
In140      In  0.57932324  0.15426709  0.04409071     1.36900
C141        C  0.55096802  0.10788104  0.04444681     0.77300
O142        O  0.61795873  0.13057024  0.04599256    -0.61200
O143        O  0.60392877  0.15476322  0.05640376    -0.52100
C144        C  0.60148970  0.17656294  0.03002620     0.69900
O145        O  0.59055979  0.15324973  0.03012465    -0.46900
C146        C  0.53898535  0.18896512  0.04783898     0.74600
O147        O  0.55941691  0.11862586  0.03755404    -0.58800
O148        O  0.56082342  0.18821923  0.05214808    -0.48900
O149        O  0.55702189  0.12096320  0.05117128    -0.55200
C150        C  0.62133484  0.13775860  0.05371122     0.84800
O151        O  0.60182212  0.18840368  0.03725621    -0.57100
O152        O  0.53852295  0.17283492  0.04152428    -0.60400
C153        C  0.20969704  0.17130081  0.54893638     0.86200
C154        C  0.17887793  0.17542201  0.54971466    -0.54100
C155        C  0.17021471  0.18314058  0.55771269     0.09100
C156        C  0.19351995  0.18569851  0.56433394     0.20100
C157        C  0.22214172  0.19835302  0.55218737    -0.54800
C158        C  0.21354510  0.20634972  0.56022173     0.09200
C159        C  0.21693190  0.15051176  0.55606754    -0.54300
C160        C  0.20854660  0.15786352  0.56413554     0.09800
H161        H  0.16529269  0.17386357  0.54421103     0.14300
H162        H  0.18600520  0.19130039  0.57081974     0.00000
H163        H  0.23662732  0.20993972  0.54837418     0.14600
H164        H  0.22914169  0.13235402  0.55506824     0.14400
In165      In  0.31743730  0.46223645  0.60735206     1.36900
C166        C  0.29755592  0.42076344  0.59808540     0.77300
O167        O  0.31896832  0.43212537  0.61838397    -0.61200
O168        O  0.29197324  0.46562417  0.61950099    -0.52100
C169        C  0.37125866  0.47287555  0.60904396     0.69900
O170        O  0.36182487  0.45376703  0.60450992    -0.46900
C171        C  0.29535947  0.50447329  0.59857515     0.74600
O172        O  0.32253423  0.42686398  0.59821193    -0.58800
O173        O  0.29471897  0.50279346  0.60668816    -0.48900
O174        O  0.28275424  0.43606367  0.60265593    -0.55200
C175        C  0.30082195  0.44374027  0.62280365     0.84800
O176        O  0.35308839  0.48699195  0.61270058    -0.57100
O177        O  0.30852400  0.48540949  0.59503660    -0.60400
In178      In  0.68017398  0.53506231  0.60867201     1.36900
C179        C  0.69648550  0.57678465  0.59877005     0.77300
O180        O  0.68496718  0.56914997  0.61825474    -0.61200
O181        O  0.69852405  0.52978689  0.62198504    -0.52100
C182        C  0.62677922  0.52165877  0.60964167     0.69900
O183        O  0.63709886  0.53503025  0.60352479    -0.46900
C184        C  0.70687016  0.49302669  0.60137690     0.74600
O185        O  0.67274247  0.57515457  0.60183836    -0.58800
O186        O  0.71250251  0.50194973  0.60878356    -0.48900
O187        O  0.71173277  0.55693349  0.60070664    -0.55200
C188        C  0.69638900  0.55474872  0.62394042     0.84800
O189        O  0.64390623  0.51453238  0.61528046    -0.57100
O190        O  0.68678789  0.50478019  0.59789302    -0.60400
C191        C  0.78422620  0.82291407  0.54844796     0.86200
C192        C  0.81540596  0.81993926  0.54901975    -0.54100
C193        C  0.82502766  0.81217252  0.55694969     0.09100
C194        C  0.80199060  0.80814656  0.56366993     0.20100
C195        C  0.77330027  0.79521800  0.55155466    -0.54800
C196        C  0.78226294  0.78740231  0.55951894     0.09200
C197        C  0.77699450  0.84302237  0.55567663    -0.54300
C198        C  0.78571124  0.83526550  0.56368420     0.09800
H199        H  0.82889623  0.82244072  0.54359112     0.14300
H200        H  0.80902011  0.80197072  0.57017876     0.00000
H201        H  0.75934652  0.78294773  0.54774614     0.14600
H202        H  0.76506862  0.86143053  0.55456040     0.14400
In203      In  0.32974515  0.08848295  0.46154722     1.36900
C204        C  0.37749418  0.06305505  0.46122700     0.77300
O205        O  0.31529980  0.04575685  0.46384501    -0.61200
O206        O  0.29751878  0.06728696  0.45339904    -0.52100
C207        C  0.30468083  0.10769649  0.47556060     0.69900
O208        O  0.32824513  0.09746293  0.47567222    -0.46900
C209        C  0.34478102  0.13269646  0.45253049     0.74600
O210        O  0.36708662  0.07240822  0.46805150    -0.58800
O211        O  0.32739164  0.11583172  0.44973609    -0.48900
O212        O  0.36348469  0.06699210  0.45451449    -0.55200
C213        C  0.29880976  0.04516516  0.45763302     0.84800
O214        O  0.29391159  0.10864141  0.46817473    -0.57100
O215        O  0.35311263  0.12757292  0.46003670    -0.60400
In216      In  0.64859027  0.90903330  0.46307651     1.36900
C217        C  0.60048093  0.93373011  0.46252087     0.77300
O218        O  0.66216763  0.95216964  0.46509960    -0.61200
O219        O  0.68300319  0.92911293  0.45561254    -0.52100
C220        C  0.67205305  0.89126165  0.47755755     0.69900
O221        O  0.64840515  0.90124619  0.47730223    -0.46900
C222        C  0.63601036  0.86549418  0.45333250     0.74600
O223        O  0.60968221  0.92267595  0.46927369    -0.58800
O224        O  0.65141849  0.88445837  0.45074234    -0.48900
O225        O  0.61584752  0.93182012  0.45603605    -0.55200
C226        C  0.68047990  0.95182086  0.45942146     0.84800
O227        O  0.68363034  0.88967501  0.47030979    -0.57100
O228        O  0.62833531  0.86815653  0.46103083    -0.60400
C229        C  0.21561535  0.31869249  0.70642851     0.86200
C230        C  0.18475455  0.31414644  0.70642002    -0.54100
C231        C  0.17401305  0.30624933  0.69867533     0.09100
C232        C  0.19584803  0.30388974  0.69149570     0.20100
C233        C  0.22758467  0.29176834  0.70290039    -0.54800
C234        C  0.21750883  0.28384540  0.69503872     0.09200
C235        C  0.22078972  0.33946701  0.69909302    -0.54300
C236        C  0.21077653  0.33167712  0.69123561     0.09800
H237        H  0.17279366  0.31577669  0.71227664     0.14300
H238        H  0.18728510  0.29833316  0.68514957     0.00000
H239        H  0.24283884  0.28017513  0.70641221     0.14600
H240        H  0.23354924  0.35737624  0.69973942     0.14400
In241      In  0.31869063  0.02776485  0.64700670     1.36900
C242        C  0.30319736  0.07329370  0.65520261     0.77300
O243        O  0.31814080  0.05678765  0.63567613    -0.61200
O244        O  0.29308966  0.02163444  0.63504504    -0.52100
C245        C  0.37180642  0.01316220  0.64657489     0.69900
O246        O  0.36038216  0.02317677  0.65310706    -0.46900
C247        C  0.29288024  0.98704585  0.65531010     0.74600
O248        O  0.32776366  0.06842471  0.65333628    -0.58800
O249        O  0.29535389  0.98758243  0.64721751    -0.48900
O250        O  0.28682829  0.05484996  0.65289635    -0.55200
C251        C  0.30057694  0.04357310  0.63145755     0.84800
O252        O  0.35590278  0.00987502  0.64028691    -0.57100
O253        O  0.30459332  0.00655990  0.65907976    -0.60400
C254        C  0.78095269  0.67006889  0.70862390     0.86200
C255        C  0.81209149  0.67304491  0.70819458    -0.54100
C256        C  0.82168203  0.68262510  0.70048654     0.09100
C257        C  0.79908360  0.68775661  0.69379210     0.20100
C258        C  0.76982623  0.69839917  0.70596827    -0.54800
C259        C  0.77917594  0.70764912  0.69817692     0.09200
C260        C  0.77381334  0.65148026  0.70091645    -0.54300
C261        C  0.78298645  0.66091428  0.69314782     0.09800
H262        H  0.82520362  0.66933016  0.71371302     0.14300
H263        H  0.80699448  0.69511150  0.68751739     0.00000
H264        H  0.75513626  0.70961369  0.70982576     0.14600
H265        H  0.76197745  0.63290139  0.70131196     0.14400
In266      In  0.68124748  0.95983462  0.64821409     1.36900
C267        C  0.69926029  0.91883932  0.65811121     0.77300
O268        O  0.70760542  0.96472346  0.63636617    -0.61200
O269        O  0.67924731  0.93213942  0.63666312    -0.52100
C270        C  0.62767190  0.96978697  0.64616188     0.69900
O271        O  0.63721783  0.94689924  0.64835242    -0.46900
C272        C  0.70482105  0.00210863  0.65627448     0.74600
O273        O  0.67748302  0.93157975  0.65968559    -0.58800
O274        O  0.70766465  0.99764435  0.64832009    -0.48900
O275        O  0.71191489  0.92744126  0.65159878    -0.55200
C276        C  0.69809987  0.94396766  0.63259124     0.84800
O277        O  0.64563036  0.98778629  0.64487638    -0.57100
O278        O  0.68904954  0.98557097  0.66001992    -0.60400
In279      In  0.33319462  0.40682933  0.79449628     1.36900
C280        C  0.38071169  0.43332543  0.79463254     0.77300
O281        O  0.31544630  0.44828067  0.79233785    -0.61200
O282        O  0.29557494  0.42277247  0.80142879    -0.52100
C283        C  0.31156779  0.38674418  0.77993115     0.69900
O284        O  0.33147662  0.40301859  0.78007267    -0.46900
C285        C  0.34875665  0.36706635  0.80540126     0.74600
O286        O  0.37436715  0.41645035  0.78882492    -0.58800
O287        O  0.33526791  0.38769003  0.80779551    -0.48900
O288        O  0.36271566  0.43658575  0.80032698    -0.55200
C289        C  0.29636031  0.44580213  0.79770383     0.84800
O290        O  0.30280180  0.38027010  0.78731480    -0.57100
O291        O  0.35275008  0.36605894  0.79738658    -0.60400
In292      In  0.65519983  0.58208492  0.79513187     1.36900
C293        C  0.60566562  0.55986560  0.79514059     0.77300
O294        O  0.67018925  0.53906266  0.79333022    -0.61200
O295        O  0.68975317  0.56299776  0.80284424    -0.52100
C296        C  0.67957912  0.60084741  0.78093468     0.69900
O297        O  0.65746395  0.58775007  0.78083392    -0.46900
C298        C  0.64151776  0.62527217  0.80477685     0.74600
O299        O  0.61558398  0.57161743  0.78861542    -0.58800
O300        O  0.65350075  0.60458328  0.80785574    -0.48900
O301        O  0.62119806  0.55941990  0.80160629    -0.55200
C302        C  0.68818975  0.54008778  0.79911136     0.84800
O303        O  0.68937716  0.60448303  0.78837657    -0.57100
O304        O  0.63827666  0.62448170  0.79673270    -0.60400
In305      In  0.16924308  0.02739407  0.10897803     1.36900
C306        C  0.18573760  0.07244931  0.10076230     0.77300
O307        O  0.16647644  0.05322166  0.12098323    -0.61200
O308        O  0.19755481  0.02339892  0.12042622    -0.52100
C309        C  0.11596167  0.01454184  0.10980555     0.69900
O310        O  0.12550545  0.03316378  0.10508801    -0.46900
C311        C  0.19259246  0.98694590  0.09990927     0.74600
O312        O  0.16097465  0.06699142  0.10203269    -0.58800
O313        O  0.19198743  0.98722151  0.10803281    -0.48900
O314        O  0.20203405  0.05460568  0.10358748    -0.55200
C315        C  0.18700302  0.04279950  0.12458875     0.84800
O316        O  0.13384068  0.00181016  0.11408337    -0.57100
O317        O  0.17988579  0.00652015  0.09644294    -0.60400
C318        C  0.27227150  0.31460104  0.04852260     0.86200
C319        C  0.30314862  0.31009879  0.04888196    -0.54100
C320        C  0.31329501  0.30406121  0.05687847     0.09100
C321        C  0.29088694  0.30290404  0.06390593     0.20100
C322        C  0.26043040  0.28808880  0.05245654    -0.54800
C323        C  0.26983524  0.28205837  0.06055050     0.09200
C324        C  0.26640000  0.33664930  0.05530897    -0.54300
C325        C  0.27567878  0.33054819  0.06340432     0.09800
H326        H  0.31564125  0.31053216  0.04311338     0.14300
H327        H  0.29850444  0.29824931  0.07046601     0.00000
H328        H  0.24623597  0.27473156  0.04921412     0.14600
H329        H  0.25485779  0.35506683  0.05385698     0.14400
In330      In  0.80747505  0.95506510  0.10721530     1.36900
C331        C  0.79128261  0.91034007  0.09882377     0.77300
O332        O  0.80952174  0.92726284  0.11876113    -0.61200
O333        O  0.78002931  0.95884538  0.11888880    -0.52100
C334        C  0.86061028  0.96867217  0.10813361     0.69900
O335        O  0.85053243  0.95467590  0.10212721    -0.46900
C336        C  0.78321848  0.99585745  0.09854194     0.74600
O337        O  0.81595583  0.91522196  0.10048876    -0.58800
O338        O  0.78471990  0.99536219  0.10665678    -0.48900
O339        O  0.77492969  0.92837686  0.10146734    -0.55200
C340        C  0.79000262  0.93835564  0.12271461     0.84800
O341        O  0.84330652  0.97657327  0.11360282    -0.57100
O342        O  0.79550943  0.97641099  0.09490638    -0.60400
C343        C  0.70291955  0.66434010  0.04840640     0.86200
C344        C  0.67209261  0.66939516  0.04869557    -0.54100
C345        C  0.66234234  0.67722063  0.05656728     0.09100
C346        C  0.68471947  0.67893774  0.06356886     0.20100
C347        C  0.71564939  0.69085392  0.05194762    -0.54800
C348        C  0.70640640  0.69860959  0.05991398     0.09200
C349        C  0.70830196  0.64314831  0.05560382    -0.54300
C350        C  0.69908717  0.65081162  0.06356393     0.09800
H351        H  0.65926918  0.66799117  0.04300853     0.14300
H352        H  0.67668871  0.68457784  0.06999580     0.00000
H353        H  0.73078359  0.70236701  0.04836609     0.14600
H354        H  0.72051806  0.62490375  0.05480557     0.14400
In355      In  0.15306110  0.41003086  0.96167591     1.36900
C356        C  0.10834619  0.44106960  0.96157571     0.77300
O357        O  0.17737852  0.44755141  0.96459395    -0.61200
O358        O  0.18255914  0.42981621  0.95226629    -0.52100
C359        C  0.17609763  0.38920115  0.97588469     0.69900
O360        O  0.15369865  0.40181129  0.97588209    -0.46900
C361        C  0.13569743  0.36677109  0.95257780     0.74600
O362        O  0.11696743  0.42903655  0.96823276    -0.58800
O363        O  0.15645284  0.38047383  0.95047382    -0.48900
O364        O  0.12265396  0.43719023  0.95494247    -0.55200
C365        C  0.18886892  0.44894982  0.95735222     0.84800
O366        O  0.18645137  0.38621591  0.96849332    -0.57100
O367        O  0.12468853  0.37456154  0.95948221    -0.60400
In368      In  0.83441387  0.59069881  0.96136806     1.36900
C369        C  0.88298633  0.56639721  0.96168605     0.77300
O370        O  0.81952876  0.54775240  0.96299554    -0.61200
O371        O  0.79883151  0.57306934  0.95401845    -0.52100
C372        C  0.80992768  0.60991961  0.97552580     0.69900
O373        O  0.83349766  0.59963400  0.97554485    -0.46900
C374        C  0.84817823  0.63214203  0.95097429     0.74600
O375        O  0.87281928  0.57784418  0.96821988    -0.58800
O376        O  0.83631250  0.61094701  0.94830402    -0.48900
O377        O  0.86813654  0.56720791  0.95506804    -0.55200
C378        C  0.80070240  0.54978256  0.95750794     0.84800
O379        O  0.79901933  0.61112132  0.96816209    -0.57100
O380        O  0.85147709  0.63280877  0.95902161    -0.60400
C381        C  0.26843440  0.16439452  0.20866076     0.86200
C382        C  0.29920121  0.16994126  0.20851417    -0.54100
C383        C  0.30916127  0.17842991  0.20071136     0.09100
C384        C  0.28704949  0.18006894  0.19365234     0.20100
C385        C  0.25532949  0.19084555  0.20519553    -0.54800
C386        C  0.26522282  0.19924682  0.19740679     0.09200
C387        C  0.26382821  0.14348856  0.20137410    -0.54300
C388        C  0.27308509  0.15177366  0.19346345     0.09800
H389        H  0.31182661  0.16779686  0.21422143     0.14300
H390        H  0.29456792  0.18705642  0.18728680     0.00000
H391        H  0.23998155  0.20227956  0.20872462     0.14600
H392        H  0.25316478  0.12432837  0.20217030     0.14400
In393      In  0.17081400  0.45453018  0.14821429     1.36900
C394        C  0.18745997  0.41186728  0.15760152     0.77300
O395        O  0.17285016  0.42362686  0.13741306    -0.61200
O396        O  0.19555167  0.46004377  0.13599924    -0.52100
C397        C  0.11753999  0.46732017  0.14699024     0.69900
O398        O  0.12752776  0.45350571  0.15306139    -0.46900
C399        C  0.19385189  0.49686851  0.15647092     0.74600
O400        O  0.16322174  0.41465852  0.15504354    -0.58800
O401        O  0.19551200  0.49359463  0.14843026    -0.48900
O402        O  0.20327033  0.43080639  0.15525885    -0.55200
C403        C  0.18906852  0.43725563  0.13280486     0.84800
O404        O  0.13490338  0.47511125  0.14153502    -0.57100
O405        O  0.17924954  0.47928696  0.16020362    -0.60400
In406      In  0.80890680  0.52193998  0.14692458     1.36900
C407        C  0.79188992  0.56434046  0.15633165     0.77300
O408        O  0.80825077  0.55389723  0.13641167    -0.61200
O409        O  0.78795140  0.51639399  0.13411647    -0.52100
C410        C  0.86206900  0.50900313  0.14608053     0.69900
O411        O  0.85111524  0.52030709  0.15248074    -0.46900
C412        C  0.78397906  0.47941173  0.15458569     0.74600
O413        O  0.81636722  0.56126652  0.15409066    -0.58800
O414        O  0.77796101  0.48760780  0.14711718    -0.48900
O415        O  0.77617119  0.54576316  0.15373048    -0.55200
C416        C  0.79372473  0.53998942  0.13134658     0.84800
O417        O  0.84559523  0.50335733  0.14009831    -0.57100
O418        O  0.80361499  0.49209490  0.15794449    -0.60400
C419        C  0.71485791  0.81299135  0.20693246     0.86200
C420        C  0.68383422  0.80934868  0.20709215    -0.54100
C421        C  0.67273830  0.79980037  0.19958896     0.09100
C422        C  0.69409267  0.79609036  0.19234506     0.20100
C423        C  0.72606991  0.78530702  0.20384666    -0.54800
C424        C  0.71526562  0.77635337  0.19624025     0.09200
C425        C  0.71987869  0.83250159  0.19929504    -0.54300
C426        C  0.70959651  0.82356543  0.19158841     0.09800
H427        H  0.67187396  0.81300426  0.21286170     0.14300
H428        H  0.68558744  0.78873284  0.18615498     0.00000
H429        H  0.74103236  0.77364658  0.20748137     0.14600
H430        H  0.73091261  0.85155486  0.19975995     0.14400
In431      In  0.14723255  0.07881822  0.29588423     1.36900
C432        C  0.10165226  0.04962486  0.29624121     0.77300
O433        O  0.16616101  0.03826295  0.29324186    -0.61200
O434        O  0.18069322  0.05962759  0.30417144    -0.52100
C435        C  0.16934029  0.10027960  0.28169262     0.69900
O436        O  0.14556606  0.09065058  0.28194193    -0.46900
C437        C  0.12980093  0.12199532  0.30498415     0.74600
O438        O  0.11263146  0.05750332  0.28932281    -0.58800
O439        O  0.14865135  0.10648197  0.30765394    -0.48900
O440        O  0.11424448  0.05647675  0.30298874    -0.55200
C441        C  0.18218148  0.03830926  0.29957565     0.84800
O442        O  0.18167508  0.09980132  0.28883403    -0.57100
O443        O  0.12119603  0.11610504  0.29757324    -0.60400
In444      In  0.82847796  0.89881323  0.29547363     1.36900
C445        C  0.87639465  0.92426805  0.29587260     0.77300
O446        O  0.81299169  0.94161311  0.29423585    -0.61200
O447        O  0.79065217  0.91497085  0.30234109    -0.52100
C448        C  0.80747969  0.88078274  0.28064296     0.69900
O449        O  0.82897933  0.89475080  0.28110594    -0.46900
C450        C  0.84327566  0.85580788  0.30522402     0.74600
O451        O  0.86791826  0.91156716  0.28933447    -0.58800
O452        O  0.82965485  0.87559479  0.30818236    -0.48900
O453        O  0.86026150  0.92395714  0.30219776    -0.55200
C454        C  0.79305009  0.93881488  0.29925873     0.84800
O455        O  0.79652286  0.87582688  0.28784465    -0.57100
O456        O  0.84790743  0.85749191  0.29726406    -0.60400
In457      In  0.94572526  0.30962800  0.35736634     1.36900
C458        C  0.90167969  0.29321124  0.34867557     0.77300
O459        O  0.96831251  0.29916128  0.34519115    -0.61200
O460        O  0.98492554  0.28523600  0.35699163    -0.52100
C461        C  0.96084787  0.36253487  0.35797697     0.69900
O462        O  0.94493528  0.35287179  0.35239859    -0.46900
C463        C  0.92877272  0.29308506  0.37293791     0.74600
O464        O  0.90583893  0.31791672  0.35060370    -0.58800
O465        O  0.94802137  0.28161951  0.36895470    -0.48900
O466        O  0.91996968  0.27702722  0.35124344    -0.55200
C467        C  0.98668150  0.28542949  0.34887851     0.84800
O468        O  0.96953667  0.34496306  0.36328348    -0.57100
O469        O  0.91897940  0.31360559  0.36909714    -0.60400
C470        C  0.65817382  0.20413465  0.29725649     0.86200
C471        C  0.63749264  0.20952331  0.30457803    -0.54100
C472        C  0.64545415  0.19984175  0.31248384     0.09100
C473        C  0.67326553  0.18506259  0.31227227     0.20100
C474        C  0.68491515  0.21648767  0.30072487    -0.54800
C475        C  0.69294131  0.20678669  0.30863253     0.09200
C476        C  0.66288323  0.17310446  0.29741392    -0.54300
C477        C  0.67104123  0.16291152  0.30519951     0.09800
H478        H  0.61940586  0.22198096  0.30386897     0.14300
H479        H  0.67903543  0.17651698  0.31862123     0.00000
H480        H  0.69633004  0.23170382  0.29713321     0.14600
H481        H  0.66120054  0.16052094  0.29167633     0.14400
In482      In  0.02971338  0.67066520  0.35744955     1.36900
C483        C  0.07388964  0.68695652  0.34885142     0.77300
O484        O  0.00760828  0.68265961  0.34535213    -0.61200
O485        O  0.98963228  0.69365400  0.35725939    -0.52100
C486        C  0.01481149  0.61757677  0.35771394     0.69900
O487        O  0.02777468  0.62843404  0.35160605    -0.46900
C488        C  0.04575183  0.68950357  0.37285679     0.74600
O489        O  0.07177177  0.66321437  0.35199444    -0.58800
O490        O  0.02572806  0.69934961  0.36880397    -0.48900
O491        O  0.05361259  0.70215416  0.35020634    -0.55200
C492        C  0.98842241  0.69488344  0.34913450     0.84800
O493        O  0.00906997  0.63398489  0.36371099    -0.57100
O494        O  0.05680629  0.66935949  0.36918151    -0.60400
C495        C  0.31783490  0.77185058  0.29690345     0.86200
C496        C  0.33795669  0.76554868  0.30430392    -0.54100
C497        C  0.32981264  0.77503027  0.31218330     0.09100
C498        C  0.30238756  0.79051553  0.31190404     0.20100
C499        C  0.29054364  0.76016438  0.30014279    -0.54800
C500        C  0.28199965  0.76994882  0.30798254     0.09200
C501        C  0.31402838  0.80305314  0.29718969    -0.54300
C502        C  0.30550118  0.81296599  0.30497047     0.09800
H503        H  0.35624858  0.75338287  0.30364756     0.14300
H504        H  0.29681137  0.79917520  0.31823075     0.00000
H505        H  0.27945076  0.74504548  0.29644684     0.14600
H506        H  0.31605930  0.81586739  0.29150187     0.14400
In507      In  0.40420504  0.64732695  0.20990267     1.36900
C508        C  0.43192168  0.60023598  0.20927459     0.77300
O509        O  0.36502793  0.62452624  0.20778082    -0.61200
O510        O  0.37837139  0.65053977  0.19774904    -0.52100
C511        C  0.38248534  0.67061444  0.22398902     0.69900
O512        O  0.39235962  0.64677637  0.22392595    -0.46900
C513        C  0.44567690  0.68127382  0.20646281     0.74600
O514        O  0.42069336  0.60884365  0.21606221    -0.58800
O515        O  0.42490426  0.67970935  0.20166629    -0.48900
O516        O  0.42888286  0.61570920  0.20284057    -0.55200
C517        C  0.36077757  0.63351298  0.20029287     0.84800
O518        O  0.38345674  0.68259934  0.21677583    -0.57100
O519        O  0.44465175  0.66609791  0.21303663    -0.60400
In520      In  0.58020166  0.32421684  0.20868264     1.36900
C521        C  0.55600952  0.37295515  0.20783582     0.77300
O522        O  0.61910185  0.34730639  0.20676379    -0.61200
O523        O  0.60759773  0.31951193  0.19697573    -0.52100
C524        C  0.60007136  0.30203766  0.22317211     0.69900
O525        O  0.58777072  0.32463963  0.22289397    -0.46900
C526        C  0.53742754  0.29213629  0.20490233     0.74600
O527        O  0.56486526  0.36274946  0.21475934    -0.58800
O528        O  0.55912066  0.29181783  0.20051926    -0.48900
O529        O  0.55946951  0.35809703  0.20128425    -0.55200
C530        C  0.62437841  0.33744073  0.19946281     0.84800
O531        O  0.60250686  0.29049858  0.21593258    -0.57100
O532        O  0.53817647  0.30810379  0.21125528    -0.60400
In533      In  0.52822746  0.31295056  0.39730891     1.36900
C534        C  0.57233994  0.30303628  0.40700652     0.77300
O535        O  0.49477605  0.31128115  0.40732524    -0.61200
O536        O  0.49986212  0.27680933  0.39930111    -0.52100
C537        C  0.51739842  0.36699337  0.39573954     0.69900
O538        O  0.53018522  0.35663440  0.40197137    -0.46900
C539        C  0.54317430  0.29182054  0.38198866     0.74600
O540        O  0.57164417  0.32118898  0.40121808    -0.58800
O541        O  0.51868839  0.29769981  0.38370251    -0.48900
O542        O  0.55026591  0.29013533  0.40791739    -0.55200
C543        C  0.48720368  0.28731291  0.40554982     0.84800
O544        O  0.50960662  0.34961052  0.39027032    -0.57100
O545        O  0.55945086  0.29691694  0.38803147    -0.60400
C546        C  0.81634972  0.21926793  0.45904330     0.86200
C547        C  0.83656726  0.22239579  0.45149828    -0.54100
C548        C  0.82690743  0.21308486  0.44376320     0.09100
C549        C  0.79819188  0.20046518  0.44435608     0.20100
C550        C  0.79037125  0.23360807  0.45576627    -0.54800
C551        C  0.78076592  0.22376919  0.44811610     0.09200
C552        C  0.80927018  0.18873565  0.45918228    -0.54300
C553        C  0.79976004  0.17849190  0.45154433     0.09800
H554        H  0.85604535  0.23259717  0.45194395     0.14300
H555        H  0.79054507  0.19303648  0.43806496     0.00000
H556        H  0.78054836  0.25028526  0.45919256     0.14600
H557        H  0.81074976  0.17669942  0.46504556     0.14400
C558        C  0.17195953  0.77294090  0.45529072     0.86200
C559        C  0.15223522  0.76840524  0.44772917    -0.54100
C560        C  0.16071255  0.77937636  0.44009971     0.09100
C561        C  0.18840010  0.79426822  0.44073685     0.20100
C562        C  0.19924090  0.76135134  0.45198350    -0.54800
C563        C  0.20831223  0.77256792  0.44437392     0.09200
C564        C  0.17628338  0.80400459  0.45561248    -0.54300
C565        C  0.18524362  0.81534437  0.44807925     0.09800
H566        H  0.13401189  0.75604540  0.44804837     0.14300
H567        H  0.19448635  0.80397650  0.43459489     0.00000
H568        H  0.20996342  0.74533870  0.45544055     0.14600
H569        H  0.17402794  0.81567873  0.46151868     0.14400
In570      In  0.46565094  0.67824470  0.39636985     1.36900
C571        C  0.42373736  0.69541251  0.40589187     0.77300
O572        O  0.49189942  0.68438021  0.40818339    -0.61200
O573        O  0.49964320  0.70978512  0.39745279    -0.52100
C574        C  0.47806361  0.62467469  0.39497385     0.69900
O575        O  0.45747924  0.63375563  0.39885709    -0.46900
C576        C  0.44668715  0.69101010  0.38057893     0.74600
O577        O  0.43200428  0.67097267  0.40593361    -0.58800
O578        O  0.47048717  0.69706330  0.38300739    -0.48900
O579        O  0.43735021  0.71120311  0.40110981    -0.55200
C580        C  0.50547865  0.70405774  0.40516966     0.84800
O581        O  0.49296224  0.64316813  0.39178501    -0.57100
O582        O  0.43330065  0.67771028  0.38608263    -0.60400
In583      In  0.08972298  0.66076948  0.54442752     1.36900
C584        C  0.06243169  0.61386597  0.54551790     0.77300
O585        O  0.12912196  0.63764013  0.54606308    -0.61200
O586        O  0.11632180  0.66278515  0.55637387    -0.52100
C587        C  0.10759535  0.68176941  0.52954717     0.69900
O588        O  0.09665573  0.65856850  0.53019548    -0.46900
C589        C  0.04975305  0.69604998  0.54831337     0.74600
O590        O  0.07034972  0.62389528  0.53845566    -0.58800
O591        O  0.07302368  0.69745334  0.55176985    -0.48900
O592        O  0.06856958  0.62788186  0.55205809    -0.55200
C593        C  0.13361646  0.64573285  0.55363645     0.84800
O594        O  0.11028014  0.69417280  0.53662595    -0.57100
O595        O  0.04734225  0.67691921  0.54295440    -0.60400
In596      In  0.90859466  0.34144987  0.54559986     1.36900
C597        C  0.93321452  0.39008376  0.54599365     0.77300
O598        O  0.86661194  0.35851529  0.54797236    -0.61200
O599        O  0.88708600  0.34019224  0.55847944    -0.52100
C600        C  0.88819295  0.31795024  0.53147102     0.69900
O601        O  0.89607600  0.34248800  0.53170399    -0.46900
C602        C  0.95017778  0.30812345  0.54909773     0.74600
O603        O  0.92273326  0.38047320  0.53922285    -0.58800
O604        O  0.92780824  0.30703672  0.55310055    -0.48900
O605        O  0.93118591  0.37471245  0.55248220    -0.55200
C606        C  0.86635132  0.35305917  0.55590598     0.84800
O607        O  0.89047139  0.30533957  0.53854422    -0.57100
O608        O  0.95092904  0.32581993  0.54317417    -0.60400
C609        C  0.94681313  0.41701514  0.54635387    -0.03700
C610        C  0.94855372  0.43367262  0.53898012    -0.09400
C611        C  0.96185489  0.45896213  0.53935627    -0.17100
C612        C  0.97354520  0.46786185  0.54709477     0.25100
C613        C  0.97162230  0.45151581  0.55448216    -0.18700
C614        C  0.95833727  0.42625212  0.55412025    -0.07700
C615        C  0.98822049  0.49334517  0.54738218    -0.14100
C616        C  0.00109293  0.51435713  0.54738735    -0.13800
C617        C  0.01674141  0.53923480  0.54698122     0.25000
C618        C  0.02726321  0.55099633  0.55450317    -0.19200
C619        C  0.04225629  0.57531192  0.55404491    -0.07700
C620        C  0.04701177  0.58799389  0.54604500    -0.03800
C621        C  0.03663485  0.57588097  0.53852275    -0.09100
C622        C  0.02152776  0.55170278  0.53899843    -0.16700
H623        H  0.93980080  0.42708145  0.53292321     0.11400
H624        H  0.96324549  0.47145113  0.53359585     0.10700
H625        H  0.98060876  0.45817598  0.56050120     0.10600
H626        H  0.95724885  0.41386089  0.55990424     0.11200
H627        H  0.02379677  0.54144614  0.56071347     0.11200
H628        H  0.05015147  0.58416326  0.55993052     0.11200
H629        H  0.03996069  0.58524872  0.53228011     0.11300
H630        H  0.01352540  0.54275806  0.53313716     0.10100
C631        C  0.23462950  0.76455253  0.44010112    -0.03700
C632        C  0.25500016  0.75008481  0.44466016    -0.09400
C633        C  0.27901589  0.74173609  0.44056972    -0.17100
C634        C  0.28339337  0.74790534  0.43188195     0.25100
C635        C  0.26382907  0.76289643  0.42733641    -0.18700
C636        C  0.23973354  0.77115406  0.43138782    -0.07700
C637        C  0.30782186  0.73865637  0.42761611    -0.14100
C638        C  0.32819938  0.73086021  0.42401372    -0.13800
C639        C  0.35255669  0.72193729  0.41964173     0.25000
C640        C  0.36844709  0.74088124  0.41510680    -0.19200
C641        C  0.39186616  0.73230703  0.41073839    -0.07700
C642        C  0.39971404  0.70463339  0.41085427    -0.03800
C643        C  0.38382982  0.68574168  0.41550072    -0.09100
C644        C  0.36036184  0.69435521  0.41985594    -0.16700
H645        H  0.25273859  0.74521391  0.45141365     0.11400
H646        H  0.29416174  0.73038295  0.44419360     0.10700
H647        H  0.26704954  0.76797561  0.42061232     0.10600
H648        H  0.22519474  0.78227117  0.42753377     0.11200
H649        H  0.36263597  0.76227295  0.41489974     0.11200
H650        H  0.40370185  0.74728908  0.40720927     0.11200
H651        H  0.38935551  0.66428107  0.41567841     0.11300
H652        H  0.34823348  0.67949424  0.42334230     0.10100
C653        C  0.16372173  0.76145060  0.46410712    -0.03700
C654        C  0.18219824  0.76386157  0.47102659    -0.09400
C655        C  0.17530793  0.75481646  0.47929927    -0.17100
C656        C  0.14973538  0.74327234  0.48086082     0.25100
C657        C  0.13115817  0.74061210  0.47408284    -0.18700
C658        C  0.13797057  0.74963792  0.46579323    -0.07700
C659        C  0.14256224  0.73424132  0.48941912    -0.14100
C660        C  0.13672722  0.72618467  0.49654491    -0.13800
C661        C  0.12973444  0.71526949  0.50489881     0.25000
C662        C  0.12002525  0.68844854  0.50556458    -0.19200
C663        C  0.11314874  0.67756560  0.51360651    -0.07700
C664        C  0.11592881  0.69333883  0.52112761    -0.03800
C665        C  0.12581752  0.72026208  0.52043570    -0.09100
C666        C  0.13266342  0.73116761  0.51235481    -0.16700
H667        H  0.20202006  0.77305164  0.47002271     0.11400
H668        H  0.18989392  0.75701291  0.48449327     0.10700
H669        H  0.11123489  0.73177718  0.47522015     0.10600
H670        H  0.12254170  0.74769277  0.46090143     0.11200
H671        H  0.11769068  0.67593532  0.49985413     0.11200
H672        H  0.10552438  0.65679814  0.51393089     0.11200
H673        H  0.12802095  0.73291182  0.52611604     0.11300
H674        H  0.14016008  0.75197057  0.51192100     0.10100
C675        C  0.82511816  0.22962181  0.46793552    -0.03700
C676        C  0.80598899  0.22900660  0.47472190    -0.09400
C677        C  0.81266367  0.23868912  0.48293321    -0.17100
C678        C  0.83873832  0.24889448  0.48458715     0.25100
C679        C  0.85817869  0.24907652  0.47799360    -0.18700
C680        C  0.85154308  0.23949410  0.46975507    -0.07700
C681        C  0.84550595  0.25941999  0.49301059    -0.14100
C682        C  0.85153021  0.26885697  0.49994846    -0.13800
C683        C  0.85949903  0.28109167  0.50802967     0.25000
C684        C  0.86272221  0.30949626  0.50858493    -0.19200
C685        C  0.87172348  0.32145204  0.51625578    -0.07700
C686        C  0.87750569  0.30517538  0.52351349    -0.03800
C687        C  0.87369351  0.27669879  0.52298114    -0.09100
C688        C  0.86482893  0.26473007  0.51526910    -0.16700
H689        H  0.78563837  0.22120145  0.47362186     0.11400
H690        H  0.79742644  0.23829359  0.48798291     0.10700
H691        H  0.87853707  0.25670422  0.47921458     0.10600
H692        H  0.86743757  0.23979465  0.46497148     0.11200
H693        H  0.85862699  0.32239765  0.50304573     0.11200
H694        H  0.87435126  0.34344334  0.51648920     0.11200
H695        H  0.87804582  0.26367004  0.52846645     0.11300
H696        H  0.86244396  0.24271875  0.51492431     0.10100
C697        C  0.59711157  0.29706031  0.41214226    -0.03700
C698        C  0.62145486  0.31145660  0.41060556    -0.09400
C699        C  0.64512410  0.30520461  0.41526340    -0.17100
C700        C  0.64477170  0.28451128  0.42152192     0.25100
C701        C  0.62055092  0.27025280  0.42313358    -0.18700
C702        C  0.59688104  0.27646206  0.41848225    -0.07700
C703        C  0.66930385  0.27726429  0.42613918    -0.14100
C704        C  0.68930497  0.26960659  0.43000101    -0.13800
C705        C  0.71238848  0.25839541  0.43457714     0.25000
C706        C  0.71554348  0.22997584  0.43516460    -0.19200
C707        C  0.73770883  0.21877502  0.43960188    -0.07700
C708        C  0.75698293  0.23580091  0.44356353    -0.03800
C709        C  0.75368641  0.26435795  0.44299279    -0.09100
C710        C  0.73154871  0.27558722  0.43850011    -0.16700
H711        H  0.62226375  0.32737373  0.40574623     0.11400
H712        H  0.66373200  0.31634037  0.41392994     0.10700
H713        H  0.62001743  0.25414169  0.42793850     0.10600
H714        H  0.57846877  0.26499666  0.41979464     0.11200
H715        H  0.70080236  0.21643714  0.43220503     0.11200
H716        H  0.73946563  0.19681539  0.44005682     0.11200
H717        H  0.76845194  0.27795770  0.44590350     0.11300
H718        H  0.72939528  0.29761827  0.43808330     0.10100
C719        C  0.48367585  0.59481109  0.39428138    -0.03700
C720        C  0.46576179  0.57595201  0.39814887    -0.09400
C721        C  0.47049727  0.54774953  0.39757621    -0.17100
C722        C  0.49320631  0.53773141  0.39311960     0.25100
C723        C  0.51119113  0.55635411  0.38921762    -0.18700
C724        C  0.50646716  0.58470611  0.38978908    -0.07700
C725        C  0.49799249  0.50840532  0.39272544    -0.14100
C726        C  0.50119996  0.48376319  0.39283374    -0.13800
C727        C  0.50493759  0.45432150  0.39349035     0.25000
C728        C  0.51737145  0.44309250  0.40081778    -0.19200
C729        C  0.52113373  0.41474431  0.40154678    -0.07700
C730        C  0.51248333  0.39698381  0.39496081    -0.03800
C731        C  0.49978256  0.40831021  0.38763817    -0.09100
C732        C  0.49606261  0.43676845  0.38691055    -0.16700
H733        H  0.44800678  0.58300560  0.40164681     0.11400
H734        H  0.45641568  0.53372260  0.40064392     0.10700
H735        H  0.52889097  0.54898018  0.38575492     0.10600
H736        H  0.52059603  0.59868440  0.38673095     0.11200
H737        H  0.52425822  0.45628593  0.40598053     0.11200
H738        H  0.53094894  0.40672072  0.40727135     0.11200
H739        H  0.49292304  0.39520394  0.38245491     0.11300
H740        H  0.48632695  0.44506702  0.38120889     0.10100
C741        C  0.44724141  0.57418436  0.20884745    -0.03700
C742        C  0.44706501  0.55582271  0.21583431    -0.09400
C743        C  0.46101695  0.53087608  0.21530640    -0.17100
C744        C  0.47542392  0.52406714  0.20781679     0.25100
C745        C  0.47597065  0.54239595  0.20087769    -0.18700
C746        C  0.46193684  0.56728020  0.20137813    -0.07700
C747        C  0.48962709  0.49830497  0.20725740    -0.14100
C748        C  0.50153454  0.47670633  0.20697583    -0.13800
C749        C  0.51570491  0.45087373  0.20708268     0.25000
C750        C  0.52189443  0.43729884  0.19937871    -0.19200
C751        C  0.53522017  0.41193684  0.19958368    -0.07700
C752        C  0.54253154  0.39997304  0.20750483    -0.03800
C753        C  0.53655879  0.41393078  0.21518768    -0.09100
C754        C  0.52316860  0.43916088  0.21497185    -0.16700
H755        H  0.43592200  0.56062285  0.22166333     0.11400
H756        H  0.46049452  0.51686938  0.22072584     0.10700
H757        H  0.48714060  0.53740587  0.19506562     0.10600
H758        H  0.46254215  0.58110193  0.19591713     0.11200
H759        H  0.51628936  0.44622209  0.19323091     0.11200
H760        H  0.53972081  0.40166753  0.19356964     0.11200
H761        H  0.54197654  0.40520425  0.22137728     0.11300
H762        H  0.51851361  0.44948203  0.22096953     0.10100
C763        C  0.37121783  0.68341591  0.23191491    -0.03700
C764        C  0.36177696  0.71063368  0.23186903    -0.09400
C765        C  0.35256345  0.72299012  0.23950088    -0.17100
C766        C  0.35258785  0.70830940  0.24728123     0.25100
C767        C  0.36137200  0.68101456  0.24731525    -0.18700
C768        C  0.37059790  0.66866870  0.23971124    -0.07700
C769        C  0.34473934  0.72131492  0.25530551    -0.14100
C770        C  0.33950740  0.73119790  0.26227592    -0.13800
C771        C  0.33458142  0.74187667  0.27085517     0.25000
C772        C  0.31106852  0.75704576  0.27266623    -0.19200
C773        C  0.30623715  0.76672923  0.28103055    -0.07700
C774        C  0.32475756  0.76147189  0.28780907    -0.03800
C775        C  0.34855692  0.74642830  0.28584650    -0.09100
C776        C  0.35330228  0.73674941  0.27747558    -0.16700
H777        H  0.36194768  0.72250204  0.22596830     0.11400
H778        H  0.34583156  0.74410909  0.23935460     0.10700
H779        H  0.36151407  0.66936148  0.25326307     0.10600
H780        H  0.37763658  0.64766690  0.23996325     0.11200
H781        H  0.29634933  0.76125385  0.26763017     0.11200
H782        H  0.28775720  0.77822497  0.28225334     0.11200
H783        H  0.36370583  0.74176373  0.29065159     0.11300
H784        H  0.37162948  0.72507707  0.27617739     0.10100
C785        C  0.43481764  0.69952115  0.37217372    -0.03700
C786        C  0.40802059  0.69190887  0.36999935    -0.09400
C787        C  0.39578560  0.70166774  0.36243098    -0.17100
C788        C  0.41009500  0.71919851  0.35689864     0.25100
C789        C  0.43702222  0.72634828  0.35891026    -0.18700
C790        C  0.44932046  0.71657020  0.36648537    -0.07700
C791        C  0.39693857  0.73025165  0.34928192    -0.14100
C792        C  0.38558216  0.73945432  0.34297190    -0.13800
C793        C  0.37171252  0.74989846  0.33539768     0.25000
C794        C  0.38658932  0.75784340  0.32810100    -0.19200
C795        C  0.37308033  0.76664532  0.32062117    -0.07700
C796        C  0.34442885  0.76779416  0.32033049    -0.03800
C797        C  0.32970712  0.76026800  0.32774223    -0.09100
C798        C  0.34321214  0.75138308  0.33520166    -0.16700
H799        H  0.39630077  0.67880143  0.37423737     0.11400
H800        H  0.37499914  0.69585965  0.36096420     0.10700
H801        H  0.44839135  0.73982499  0.35468817     0.10600
H802        H  0.46994229  0.72281753  0.36798382     0.11200
H803        H  0.40864145  0.75686991  0.32814695     0.11200
H804        H  0.38503603  0.77241078  0.31504398     0.11200
H805        H  0.30772608  0.76021805  0.32768907     0.11300
H806        H  0.33137615  0.74518321  0.34076463     0.10100
C807        C  0.25591927  0.76131273  0.31227175    -0.03700
C808        C  0.23557834  0.74692744  0.30769529    -0.09400
C809        C  0.21203993  0.73761488  0.31185556    -0.17100
C810        C  0.20817706  0.74273330  0.32062806     0.25100
C811        C  0.22755832  0.75779403  0.32517042    -0.18700
C812        C  0.25109987  0.76706027  0.32105289    -0.07700
C813        C  0.18463431  0.73225515  0.32506184    -0.14100
C814        C  0.16543922  0.72374932  0.32910265    -0.13800
C815        C  0.14260268  0.71434746  0.33411082     0.25000
C816        C  0.11954641  0.73097315  0.33495201    -0.19200
C817        C  0.09731329  0.72206749  0.33981833    -0.07700
C818        C  0.09781409  0.69634041  0.34389252    -0.03800
C819        C  0.12109602  0.67976647  0.34306437    -0.09100
C820        C  0.14340968  0.68877662  0.33820791    -0.16700
H821        H  0.23751345  0.74274263  0.30089375     0.11400
H822        H  0.19695234  0.72625309  0.30823557     0.10700
H823        H  0.22465406  0.76210984  0.33195742     0.10600
H824        H  0.26540126  0.77827311  0.32493198     0.11200
H825        H  0.11873153  0.75082088  0.33183415     0.11200
H826        H  0.07963161  0.73524528  0.34033833     0.11200
H827        H  0.12202769  0.65989915  0.34615740     0.11300
H828        H  0.16123013  0.67579976  0.33763142     0.10100
C829        C  0.14568588  0.77405985  0.43192849    -0.03700
C830        C  0.11699553  0.77365515  0.43184905    -0.09400
C831        C  0.10275750  0.76542408  0.42448118    -0.17100
C832        C  0.11693894  0.75745859  0.41707162     0.25100
C833        C  0.14548551  0.75841205  0.41702425    -0.18700
C834        C  0.15976095  0.76671035  0.42439359    -0.07700
C835        C  0.10230120  0.74721892  0.40966329    -0.14100
C836        C  0.09070524  0.73758242  0.40349613    -0.13800
C837        C  0.07828722  0.72493472  0.39605202     0.25000
C838        C  0.08914720  0.70057105  0.39277312    -0.19200
C839        C  0.07815351  0.68874099  0.38533898    -0.07700
C840        C  0.05603008  0.70107067  0.38106881    -0.03800
C841        C  0.04482479  0.72525309  0.38449237    -0.09100
C842        C  0.05591253  0.73711655  0.39193284    -0.16700
H843        H  0.10556615  0.77929251  0.43754608     0.11400
H844        H  0.08069730  0.76478046  0.42462295     0.10700
H845        H  0.15674036  0.75212503  0.41135600     0.10600
H846        H  0.18175611  0.76617511  0.42430544     0.11200
H847        H  0.10641288  0.69090039  0.39589563     0.11200
H848        H  0.08723846  0.67014709  0.38285789     0.11200
H849        H  0.02784414  0.73526244  0.38132763     0.11300
H850        H  0.04728194  0.75595943  0.39439729     0.10100
C851        C  0.61010009  0.29018210  0.23138694    -0.03700
C852        C  0.60742680  0.30512291  0.23908483    -0.09400
C853        C  0.61495556  0.29355516  0.24698785    -0.17100
C854        C  0.62529965  0.26686640  0.24734667     0.25100
C855        C  0.62878072  0.25208823  0.23967900    -0.18700
C856        C  0.62128284  0.26368672  0.23173847    -0.07700
C857        C  0.63144301  0.25456259  0.25561823    -0.14100
C858        C  0.63578625  0.24497938  0.26269054    -0.13800
C859        C  0.64076331  0.23419846  0.27124996     0.25000
C860        C  0.66590550  0.22232122  0.27327843    -0.19200
C861        C  0.67096569  0.21247908  0.28161200    -0.07700
C862        C  0.65115659  0.21462296  0.28817566    -0.03800
C863        C  0.62562413  0.22607815  0.28597231    -0.09100
C864        C  0.62058268  0.23579408  0.27760772    -0.16700
H865        H  0.59904201  0.32563702  0.23902215     0.11400
H866        H  0.61225051  0.30528911  0.25284473     0.10700
H867        H  0.63685126  0.23144884  0.23985106     0.10600
H868        H  0.62365991  0.25174570  0.22591384     0.11200
H869        H  0.68169533  0.22075656  0.26842526     0.11200
H870        H  0.69063462  0.20338764  0.28298445     0.11200
H871        H  0.60920848  0.22747122  0.29056099     0.11300
H872        H  0.60088869  0.24465041  0.27610833     0.10100
C873        C  0.63108481  0.20736602  0.32066050    -0.03700
C874        C  0.60265525  0.21142803  0.32085318    -0.09400
C875        C  0.58968820  0.22051950  0.32838579    -0.17100
C876        C  0.60485828  0.22569301  0.33586026     0.25100
C877        C  0.63306285  0.22127160  0.33576679    -0.18700
C878        C  0.64606409  0.21224661  0.32824943    -0.07700
C879        C  0.59176733  0.23627573  0.34354638    -0.14100
C880        C  0.58186641  0.24567160  0.35006200    -0.13800
C881        C  0.57167196  0.25721045  0.35804455     0.25000
C882        C  0.58944144  0.26083018  0.36500556    -0.19200
C883        C  0.58001816  0.27207600  0.37274034    -0.07700
C884        C  0.55256609  0.27989930  0.37369056    -0.03800
C885        C  0.53473078  0.27622173  0.36668660    -0.09100
C886        C  0.54425731  0.26499790  0.35890799    -0.16700
H887        H  0.59041724  0.20770404  0.31517208     0.11400
H888        H  0.56785576  0.22380155  0.32834606     0.10700
H889        H  0.64513286  0.22529966  0.34147170     0.10600
H890        H  0.66800038  0.21005748  0.32833547     0.11200
H891        H  0.61067020  0.25497186  0.36445615     0.11200
H892        H  0.59428863  0.27459591  0.37800339     0.11200
H893        H  0.51351721  0.28209869  0.36721377     0.11300
H894        H  0.53025476  0.26240495  0.35357547     0.10100
C895        C  0.87746843  0.28387502  0.34383069    -0.03700
C896        C  0.85687521  0.30243518  0.34144427    -0.09400
C897        C  0.83374030  0.29332042  0.33701951    -0.17100
C898        C  0.83095149  0.26559574  0.33491402     0.25100
C899        C  0.85155845  0.24708275  0.33716593    -0.18700
C900        C  0.87466015  0.25614014  0.34159715    -0.07700
C901        C  0.80686209  0.25604621  0.33053502    -0.14100
C902        C  0.78676395  0.24778316  0.32688878    -0.13800
C903        C  0.76298385  0.23774491  0.32245090     0.25000
C904        C  0.75256191  0.21184626  0.32438165    -0.19200
C905        C  0.72981175  0.20188811  0.31996266    -0.07700
C906        C  0.71718756  0.21750752  0.31343402    -0.03800
C907        C  0.72762240  0.24383103  0.31168422    -0.09100
C908        C  0.75031624  0.25379222  0.31614272    -0.16700
H909        H  0.85855254  0.32392214  0.34305776     0.11400
H910        H  0.81796144  0.30785556  0.33529091     0.10700
H911        H  0.84968788  0.22560348  0.33554855     0.10600
H912        H  0.89026281  0.24141365  0.34331382     0.11200
H913        H  0.76206902  0.19926944  0.32929681     0.11200
H914        H  0.72251700  0.18188074  0.32169801     0.11200
H915        H  0.71812568  0.25707557  0.30696682     0.11300
H916        H  0.75799658  0.27403750  0.31465697     0.10100
C917        C  0.00753271  0.58804145  0.35783753    -0.03700
C918        C  0.99529451  0.57606840  0.36512412    -0.09400
C919        C  0.98981345  0.54787776  0.36534688    -0.17100
C920        C  0.99639671  0.53123335  0.35828973     0.25100
C921        C  0.00805824  0.54315295  0.35094449    -0.18700
C922        C  0.01360163  0.57128850  0.35071880    -0.07700
C923        C  0.99143015  0.50197499  0.35859408    -0.14100
C924        C  0.98714208  0.47753558  0.35871250    -0.13800
C925        C  0.98111009  0.44847456  0.35855283     0.25000
C926        C  0.99185464  0.43067562  0.36480670    -0.19200
C927        C  0.98548027  0.40263585  0.36464121    -0.07700
C928        C  0.96826278  0.39202805  0.35820837    -0.03800
C929        C  0.95770223  0.41003682  0.35195293    -0.09100
C930        C  0.96408617  0.43795041  0.35212400    -0.16700
H931        H  0.99034089  0.58841581  0.37069755     0.11400
H932        H  0.98067426  0.53902541  0.37106087     0.10700
H933        H  0.01313446  0.53064627  0.34541311     0.10600
H934        H  0.02291672  0.57989142  0.34499817     0.11200
H935        H  0.00505415  0.43847338  0.36982825     0.11200
H936        H  0.99388987  0.38930695  0.36955300     0.11200
H937        H  0.94437506  0.40255502  0.34692004     0.11300
H938        H  0.95560643  0.45137505  0.34724478     0.10100
C939        C  0.91799453  0.28292295  0.38126707    -0.03700
C940        C  0.89563978  0.29596653  0.38517665    -0.09400
C941        C  0.88445103  0.28562061  0.39280966    -0.17100
C942        C  0.89542112  0.26209856  0.39664613     0.25100
C943        C  0.91789168  0.24915570  0.39285197    -0.18700
C944        C  0.92910947  0.25947144  0.38520572    -0.07700
C945        C  0.88364206  0.25137767  0.40447826    -0.14100
C946        C  0.87381754  0.24319825  0.41114029    -0.13800
C947        C  0.86251410  0.23500087  0.41933304     0.25000
C948        C  0.84948163  0.20966143  0.42031353    -0.19200
C949        C  0.83835059  0.20215805  0.42830245    -0.07700
C950        C  0.84026081  0.21987577  0.43540906    -0.03800
C951        C  0.85344353  0.24524582  0.43433506    -0.09100
C952        C  0.86445816  0.25269591  0.42637448    -0.16700
H953        H  0.88659731  0.31400143  0.38228062     0.11400
H954        H  0.86712836  0.29588344  0.39569025     0.10700
H955        H  0.92663184  0.23099674  0.39577132     0.10600
H956        H  0.94627450  0.24895622  0.38232983     0.11200
H957        H  0.84781475  0.19578198  0.41490353     0.11200
H958        H  0.82832683  0.18252722  0.42892405     0.11200
H959        H  0.85459045  0.25977434  0.43957909     0.11300
H960        H  0.87428044  0.27243283  0.42569213     0.10100
C961        C  0.96702900  0.71017309  0.34437953    -0.03700
C962        C  0.96770040  0.71150532  0.33532151    -0.09400
C963        C  0.94863473  0.72730660  0.33079621    -0.17100
C964        C  0.92856868  0.74202257  0.33523832     0.25100
C965        C  0.92756748  0.74056657  0.34425817    -0.18700
C966        C  0.94665583  0.72474823  0.34880308    -0.07700
C967        C  0.90974004  0.75930506  0.33053097    -0.14100
C968        C  0.89527198  0.77437770  0.32633987    -0.13800
C969        C  0.87995483  0.79322639  0.32099524     0.25000
C970        C  0.86192670  0.81216947  0.32468664    -0.19200
C971        C  0.84912691  0.83203653  0.31953358    -0.07700
C972        C  0.85418120  0.83316259  0.31061365    -0.03800
C973        C  0.87156723  0.81347189  0.30693174    -0.09100
C974        C  0.88436468  0.79372912  0.31208180    -0.16700
H975        H  0.98324181  0.70066231  0.33173213     0.11400
H976        H  0.94977142  0.72832151  0.32382926     0.10700
H977        H  0.91225328  0.75193509  0.34778682     0.10600
H978        H  0.94574146  0.72426108  0.35577459     0.11200
H979        H  0.85831232  0.81204636  0.33157374     0.11200
H980        H  0.83586965  0.84693156  0.32255231     0.11200
H981        H  0.87594587  0.81382767  0.30009201     0.11300
H982        H  0.89826899  0.77927676  0.30913107     0.10100
C983        C  0.77465402  0.96202727  0.30132843    -0.03700
C984        C  0.78034941  0.98805328  0.29789347    -0.09400
C985        C  0.76368206  0.01043196  0.29976553    -0.17100
C986        C  0.74089725  0.00733478  0.30508370     0.25100
C987        C  0.73499506  0.98149681  0.30859433    -0.18700
C988        C  0.75181668  0.95892674  0.30673286    -0.07700
C989        C  0.72381383  0.03093275  0.30670748    -0.14100
C990        C  0.71170429  0.05244620  0.30731700    -0.13800
C991        C  0.69975105  0.07954777  0.30739520     0.25000
C992        C  0.71235070  0.10057132  0.31202818    -0.19200
C993        C  0.70243686  0.12739818  0.31151495    -0.07700
C994        C  0.67979358  0.13380668  0.30633951    -0.03800
C995        C  0.66690624  0.11245078  0.30181555    -0.09100
C996        C  0.67681862  0.08554588  0.30234428    -0.16700
H997        H  0.79781731  0.99119194  0.29374574     0.11400
H998        H  0.76854874  0.03023737  0.29701625     0.10700
H999        H  0.71742620  0.97878471  0.31273103     0.10600
H1000       H  0.74697905  0.93914501  0.30948986     0.11200
H1001       H  0.73033428  0.09637976  0.31586406     0.11200
H1002       H  0.71330063  0.14322476  0.31488455     0.11200
H1003       H  0.64934815  0.11659177  0.29779433     0.11300
H1004       H  0.66694452  0.06954957  0.29866800     0.10100
C1005       C  0.07603550  0.03389965  0.29641999    -0.03700
C1006       C  0.06338215  0.02596140  0.28869250    -0.09400
C1007       C  0.03882987  0.01151560  0.28886666    -0.17100
C1008       C  0.02666174  0.00487984  0.29675390     0.25100
C1009       C  0.03917682  0.01264385  0.30447618    -0.18700
C1010       C  0.06375967  0.02705381  0.30431604    -0.07700
C1011       C  0.00120570  0.99035352  0.29690053    -0.14100
C1012       C  0.97970795  0.97847115  0.29686807    -0.13800
C1013       C  0.95385778  0.96466303  0.29665167     0.25000
C1014       C  0.93615511  0.96633336  0.30370107    -0.19200
C1015       C  0.91087127  0.95321071  0.30344168    -0.07700
C1016       C  0.90301518  0.93828255  0.29611609    -0.03800
C1017       C  0.92089291  0.93674355  0.28905466    -0.09100
C1018       C  0.94619141  0.94984091  0.28933302    -0.16700
H1019       H  0.07240791  0.03099273  0.28252176     0.11400
H1020       H  0.02928474  0.00561969  0.28285371     0.10700
H1021       H  0.02989191  0.00764891  0.31061430     0.10600
H1022       H  0.07305823  0.03299269  0.31035922     0.11200
H1023       H  0.94186809  0.97781444  0.30938767     0.11200
H1024       H  0.89746635  0.95476373  0.30896277     0.11200
H1025       H  0.91535095  0.92537226  0.28333337     0.11300
H1026       H  0.95973509  0.94846437  0.28383648     0.10100
C1027       C  0.00767206  0.26992914  0.34403990    -0.03700
C1028       C  0.00907894  0.27189001  0.33500305    -0.09400
C1029       C  0.02736750  0.25561670  0.33033914    -0.17100
C1030       C  0.04448745  0.23709303  0.33462673     0.25100
C1031       C  0.04349970  0.23533137  0.34363826    -0.18700
C1032       C  0.02527071  0.25166816  0.34831878    -0.07700
C1033       C  0.06221829  0.21918726  0.32975675    -0.14100
C1034       C  0.07599158  0.20359269  0.32554429    -0.13800
C1035       C  0.09089151  0.18428275  0.32027421     0.25000
C1036       C  0.11284705  0.16936392  0.32368141    -0.19200
C1037       C  0.12617152  0.14958221  0.31865260    -0.07700
C1038       C  0.11766641  0.14447649  0.31014814    -0.03800
C1039       C  0.09596645  0.15994765  0.30673891    -0.09100
C1040       C  0.08270855  0.17964109  0.31176022    -0.16700
H1041       H  0.99570541  0.28567144  0.33152451     0.11400
H1042       H  0.02782440  0.25715991  0.32337407     0.10700
H1043       H  0.05651580  0.22101331  0.34704123     0.10600
H1044       H  0.02449550  0.24954845  0.35526290     0.11200
H1045       H  0.11937033  0.17268534  0.33026653     0.11200
H1046       H  0.14270606  0.13790498  0.32146722     0.11200
H1047       H  0.08883240  0.15643518  0.30022946     0.11300
H1048       H  0.06574366  0.19093830  0.30903824     0.10100
C1049       C  0.20062989  0.01483236  0.30131960    -0.03700
C1050       C  0.21665249  0.01322546  0.30882964    -0.09400
C1051       C  0.23283031  0.98996364  0.31043498    -0.17100
C1052       C  0.23320523  0.96817950  0.30453856     0.25100
C1053       C  0.21767028  0.97001403  0.29700544    -0.18700
C1054       C  0.20156485  0.99304826  0.29541072    -0.07700
C1055       C  0.24884360  0.94352993  0.30614115    -0.14100
C1056       C  0.26056737  0.92178653  0.30677752    -0.13800
C1057       C  0.27329976  0.89502058  0.30690495     0.25000
C1058       C  0.29647847  0.88987741  0.30188720    -0.19200
C1059       C  0.30760993  0.86346805  0.30148848    -0.07700
C1060       C  0.29569047  0.84170247  0.30609704    -0.03800
C1061       C  0.27279138  0.84720825  0.31128190    -0.09100
C1062       C  0.26167301  0.87361469  0.31166080    -0.16700
H1063       H  0.21634765  0.02968080  0.31349378     0.11400
H1064       H  0.24477787  0.98885380  0.31629562     0.10700
H1065       H  0.21775581  0.95342579  0.29237933     0.10600
H1066       H  0.18956972  0.99364839  0.28955399     0.11200
H1067       H  0.30566233  0.90617936  0.29814662     0.11200
H1068       H  0.32533843  0.86001439  0.29748387     0.11200
H1069       H  0.26269884  0.83091726  0.31477010     0.11300
H1070       H  0.24359337  0.87717662  0.31550571     0.10100
C1071       C  0.79628277  0.87125334  0.27230813    -0.03700
C1072       C  0.77068454  0.85843685  0.27184923    -0.09400
C1073       C  0.76017282  0.84995816  0.26388483    -0.17100
C1074       C  0.77517775  0.85407017  0.25630382     0.25100
C1075       C  0.80072017  0.86669262  0.25673603    -0.18700
C1076       C  0.81118394  0.87526066  0.26466631    -0.07700
C1077       C  0.76442688  0.84572560  0.24805219    -0.14100
C1078       C  0.75607420  0.83950971  0.24099379    -0.13800
C1079       C  0.74635018  0.83291024  0.23246139     0.25000
C1080       C  0.73045916  0.80958701  0.23111216    -0.19200
C1081       C  0.72067397  0.80352819  0.22286647    -0.07700
C1082       C  0.72635348  0.82075882  0.21577926    -0.03800
C1083       C  0.74276629  0.84403444  0.21722631    -0.09100
C1084       C  0.75261139  0.84997353  0.22548743    -0.16700
H1085       H  0.75873700  0.85517433  0.27762638     0.11400
H1086       H  0.74033998  0.84028282  0.26363819     0.10700
H1087       H  0.81253049  0.87002269  0.25092940     0.10600
H1088       H  0.83096859  0.88504113  0.26481545     0.11200
H1089       H  0.72554391  0.79609951  0.23643804     0.11200
H1090       H  0.70842806  0.78530648  0.22200500     0.11200
H1091       H  0.74840975  0.85781176  0.21210694     0.11300
H1092       H  0.76508888  0.86799954  0.22643814     0.10100
C1093       C  0.64398682  0.78966529  0.19913983    -0.03700
C1094       C  0.62906803  0.79008727  0.19138964    -0.09400
C1095       C  0.60235487  0.77967788  0.19108711    -0.17100
C1096       C  0.59027046  0.76858463  0.19851343     0.25100
C1097       C  0.60505591  0.76804659  0.20621343    -0.18700
C1098       C  0.63157245  0.77835648  0.20652882    -0.07700
C1099       C  0.56314013  0.75687076  0.19834799    -0.14100
C1100       C  0.54128294  0.74557983  0.19909881    -0.13800
C1101       C  0.51660645  0.73034056  0.20092851     0.25000
C1102       C  0.51494768  0.71496807  0.20853479    -0.19200
C1103       C  0.49174034  0.69938220  0.21033822    -0.07700
C1104       C  0.46963338  0.69886959  0.20456970    -0.03800
C1105       C  0.47121162  0.71457316  0.19696770    -0.09100
C1106       C  0.49456844  0.73020939  0.19516114    -0.16700
H1107       H  0.63792892  0.79859991  0.18558941     0.11400
H1108       H  0.59122322  0.78013856  0.18506075     0.10700
H1109       H  0.59618776  0.75928105  0.21198692     0.10600
H1110       H  0.64254358  0.77676596  0.21255788     0.11200
H1111       H  0.53176953  0.71481637  0.21305914     0.11200
H1112       H  0.49121951  0.68750464  0.21623574     0.11200
H1113       H  0.45455434  0.71452900  0.19239029     0.11300
H1114       H  0.49552297  0.74196962  0.18924453     0.10100
C1115       C  0.72338811  0.75017136  0.19213304    -0.03700
C1116       C  0.70415431  0.73447149  0.18760649    -0.09400
C1117       C  0.71189315  0.71000256  0.18362697    -0.17100
C1118       C  0.73892747  0.70096319  0.18411859     0.25100
C1119       C  0.75816371  0.71638344  0.18865282    -0.18700
C1120       C  0.75046662  0.74081568  0.19264388    -0.07700
C1121       C  0.74714557  0.67625350  0.17980080    -0.14100
C1122       C  0.75460596  0.65607820  0.17600776    -0.13800
C1123       C  0.76401744  0.63263604  0.17125504     0.25000
C1124       C  0.79189022  0.62913342  0.16967600    -0.19200
C1125       C  0.80103429  0.60683335  0.16483047    -0.07700
C1126       C  0.78236284  0.58774178  0.16153070    -0.03800
C1127       C  0.75442968  0.59127298  0.16320645    -0.09100
C1128       C  0.74531986  0.61362984  0.16802860    -0.16700
H1129       H  0.68307327  0.74090774  0.18722161     0.11400
H1130       H  0.69682605  0.69819779  0.18014253     0.10700
H1131       H  0.77917450  0.70965248  0.18903582     0.10600
H1132       H  0.76582290  0.75263537  0.19598291     0.11200
H1133       H  0.80653238  0.64374203  0.17213831     0.11200
H1134       H  0.82266660  0.60455408  0.16365196     0.11200
H1135       H  0.73961467  0.57687542  0.16073372     0.11300
H1136       H  0.72370019  0.61617945  0.16919420     0.10100
C1137       C  0.64752350  0.34740719  0.19417511    -0.03700
C1138       C  0.65115890  0.33861628  0.18562453    -0.09400
C1139       C  0.67100055  0.35083639  0.18036218    -0.17100
C1140       C  0.68748148  0.37190264  0.18359046     0.25100
C1141       C  0.68466375  0.37992473  0.19220100    -0.18700
C1142       C  0.66488737  0.36779124  0.19745111    -0.07700
C1143       C  0.70601861  0.38661579  0.17800190    -0.14100
C1144       C  0.72067824  0.40072075  0.17356363    -0.13800
C1145       C  0.73742205  0.41916334  0.16852775     0.25000
C1146       C  0.76227923  0.42860609  0.17181792    -0.19200
C1147       C  0.77775042  0.44772697  0.16718831    -0.07700
C1148       C  0.76864548  0.45763146  0.15916871    -0.03800
C1149       C  0.74389300  0.44772266  0.15583379    -0.09100
C1150       C  0.72836904  0.42870301  0.16049533    -0.16700
H1151       H  0.63806745  0.32300551  0.18292285     0.11400
H1152       H  0.67293936  0.34440616  0.17371290     0.10700
H1153       H  0.69723172  0.39616048  0.19479536     0.10600
H1154       H  0.66261647  0.37500906  0.20400728     0.11200
H1155       H  0.76950087  0.42153461  0.17803464     0.11200
H1156       H  0.79665849  0.45505482  0.16993915     0.11200
H1157       H  0.73622167  0.45515875  0.14971687     0.11300
H1158       H  0.70910193  0.42175836  0.15789101     0.10100
C1159       C  0.08798637  0.47348278  0.14636011    -0.03700
C1160       C  0.07768998  0.49048266  0.13979129    -0.09400
C1161       C  0.04965235  0.49590618  0.13922893    -0.17100
C1162       C  0.03155128  0.48431376  0.14519661     0.25100
C1163       C  0.04171648  0.46742600  0.15175415    -0.18700
C1164       C  0.06967569  0.46206187  0.15234013    -0.07700
C1165       C  0.00255311  0.48941412  0.14461982    -0.14100
C1166       C  0.97812351  0.49284157  0.14450280    -0.13800
C1167       C  0.94887228  0.49647590  0.14483577     0.25000
C1168       C  0.93260093  0.49097639  0.13761092    -0.19200
C1169       C  0.90423461  0.49450097  0.13801749    -0.07700
C1170       C  0.89181229  0.50366371  0.14565805    -0.03800
C1171       C  0.90829821  0.50891410  0.15288763    -0.09100
C1172       C  0.93655549  0.50531294  0.15247840    -0.16700
H1173       H  0.09129512  0.49955953  0.13509775     0.11400
H1174       H  0.04209894  0.50903684  0.13412526     0.10700
H1175       H  0.02799634  0.45830472  0.15641187     0.10600
H1176       H  0.07695337  0.44882753  0.15745475     0.11200
H1177       H  0.94183566  0.48406501  0.13165829     0.11200
H1178       H  0.89208311  0.49042468  0.13233817     0.11200
H1179       H  0.89935624  0.51600408  0.15886182     0.11300
H1180       H  0.94882200  0.50954355  0.15812673     0.10100
C1181       C  0.33762123  0.62387807  0.19493595    -0.03700
C1182       C  0.33641809  0.62952151  0.18604713    -0.09400
C1183       C  0.31592634  0.61787030  0.18091077    -0.17100
C1184       C  0.29627326  0.60062078  0.18460253     0.25100
C1185       C  0.29686138  0.59572512  0.19349467    -0.18700
C1186       C  0.31735478  0.60719678  0.19861426    -0.07700
C1187       C  0.27640583  0.58667337  0.17928475    -0.14100
C1188       C  0.26033052  0.57335530  0.17511157    -0.13800
C1189       C  0.24193621  0.55580149  0.17035544     0.25000
C1190       C  0.22362362  0.53880541  0.17476314    -0.19200
C1191       C  0.20721431  0.52031990  0.17022036    -0.07700
C1192       C  0.20890194  0.51851325  0.16118590    -0.03800
C1193       C  0.22677091  0.53616714  0.15678448    -0.09100
C1194       C  0.24318867  0.55462746  0.16133963    -0.16700
H1195       H  0.35179012  0.64220279  0.18302863     0.11400
H1196       H  0.31578649  0.62181874  0.17403859     0.10700
H1197       H  0.28183677  0.58246661  0.19645116     0.10600
H1198       H  0.31767636  0.60251871  0.20543881     0.11200
H1199       H  0.22245128  0.53940708  0.18173287     0.11200
H1200       H  0.19373173  0.50693990  0.17379578     0.11200
H1201       H  0.22861336  0.53517830  0.14983733     0.11300
H1202       H  0.25728675  0.56756486  0.15783714     0.10100
C1203       C  0.19655842  0.38833022  0.16287109    -0.03700
C1204       C  0.17787220  0.36812631  0.16545416    -0.09400
C1205       C  0.18660130  0.34547413  0.17024272    -0.17100
C1206       C  0.21407764  0.34273475  0.17251044     0.25100
C1207       C  0.23274276  0.36298163  0.17008218    -0.18700
C1208       C  0.22404151  0.38568104  0.16530097    -0.07700
C1209       C  0.22317529  0.31877868  0.17711198    -0.14100
C1210       C  0.23056905  0.29826248  0.18076781    -0.13800
C1211       C  0.23923458  0.27343410  0.18497303     0.25000
C1212       C  0.26662668  0.26546900  0.18467532    -0.19200
C1213       C  0.27502713  0.24124258  0.18868995    -0.07700
C1214       C  0.25612662  0.22475073  0.19308215    -0.03800
C1215       C  0.22864639  0.23289091  0.19336334    -0.09100
C1216       C  0.22025728  0.25706076  0.18930882    -0.16700
H1217       H  0.15656037  0.36971597  0.16371116     0.11400
H1218       H  0.17197180  0.32995156  0.17209620     0.10700
H1219       H  0.25405627  0.36108611  0.17180642     0.10600
H1220       H  0.23884629  0.40099449  0.16342810     0.11200
H1221       H  0.28149843  0.27800539  0.18135214     0.11200
H1222       H  0.29637993  0.23567383  0.18848561     0.11200
H1223       H  0.21361124  0.22040373  0.19662183     0.11300
H1224       H  0.19898089  0.26295320  0.18954392     0.10100
C1225       C  0.25809831  0.15714719  0.21769701    -0.03700
C1226       C  0.24719885  0.13129639  0.21986557    -0.09400
C1227       C  0.23733124  0.12611245  0.22816779    -0.17100
C1228       C  0.23818977  0.14645663  0.23448536     0.25100
C1229       C  0.24938623  0.17199954  0.23250217    -0.18700
C1230       C  0.25945241  0.17720252  0.22422288    -0.07700
C1231       C  0.22747097  0.14096469  0.24296876    -0.14100
C1232       C  0.21787842  0.13535296  0.24991615    -0.13800
C1233       C  0.20562284  0.12754401  0.25800171     0.25000
C1234       C  0.22148768  0.12543063  0.26548206    -0.19200
C1235       C  0.20961251  0.11704419  0.27325801    -0.07700
C1236       C  0.18174053  0.11054627  0.27362427    -0.03800
C1237       C  0.16594184  0.11284425  0.26609228    -0.09100
C1238       C  0.17780656  0.12134034  0.25834433    -0.16700
H1239       H  0.24631442  0.11471234  0.21531464     0.11400
H1240       H  0.22895504  0.10614417  0.22965664     0.10700
H1241       H  0.25030135  0.18792104  0.23734376     0.10600
H1242       H  0.26803862  0.19715574  0.22285594     0.11200
H1243       H  0.24306686  0.13003126  0.26528869     0.11200
H1244       H  0.22229281  0.11522691  0.27894337     0.11200
H1245       H  0.14444153  0.10788490  0.26617584     0.11300
H1246       H  0.16533051  0.12280800  0.25259930     0.10100
C1247       C  0.51277340  0.27587336  0.20277141    -0.03700
C1248       C  0.51276458  0.25664961  0.19602397    -0.09400
C1249       C  0.48896694  0.24200821  0.19399956    -0.17100
C1250       C  0.46489498  0.24653008  0.19866707     0.25100
C1251       C  0.46486177  0.26564544  0.20537558    -0.18700
C1252       C  0.48854169  0.28012470  0.20742491    -0.07700
C1253       C  0.44015459  0.23149597  0.19683297    -0.14100
C1254       C  0.41819220  0.22030808  0.19639614    -0.13800
C1255       C  0.39115681  0.20884427  0.19732105     0.25000
C1256       C  0.37803942  0.21093076  0.20529240    -0.19200
C1257       C  0.35167827  0.20077289  0.20638890    -0.07700
C1258       C  0.33778195  0.18816710  0.19952064    -0.03800
C1259       C  0.35109714  0.18602412  0.19150601    -0.09100
C1260       C  0.37763601  0.19627138  0.19041653    -0.16700
H1261       H  0.53110721  0.25296095  0.19232529     0.11400
H1262       H  0.48935524  0.22721136  0.18881159     0.10700
H1263       H  0.44646015  0.26934905  0.20905474     0.10600
H1264       H  0.48780612  0.29485086  0.21262803     0.11200
H1265       H  0.38811478  0.22076921  0.21067297     0.11200
H1266       H  0.34197677  0.20349592  0.21258954     0.11200
H1267       H  0.34113176  0.17630365  0.18609941     0.11300
H1268       H  0.38750648  0.19450755  0.18419909     0.10100
C1269       C  0.08343520  0.45805381  0.96155782    -0.03700
C1270       C  0.07408787  0.47034861  0.95390518    -0.09400
C1271       C  0.04999446  0.48569488  0.95388050    -0.17100
C1272       C  0.03506773  0.48895652  0.96150116     0.25100
C1273       C  0.04445215  0.47708409  0.96915901    -0.18700
C1274       C  0.06849010  0.46173377  0.96919558    -0.07700
C1275       C  0.00973210  0.50378867  0.96145628    -0.14100
C1276       C  0.98805127  0.51539368  0.96153832    -0.13800
C1277       C  0.96176858  0.52844635  0.96160917     0.25000
C1278       C  0.95069659  0.53812771  0.96934513    -0.19200
C1279       C  0.92498295  0.55052582  0.96940020    -0.07700
C1280       C  0.91005929  0.55323317  0.96171264    -0.03800
C1281       C  0.92130596  0.54338320  0.95398394    -0.09100
C1282       C  0.94702402  0.53110714  0.95393694    -0.16700
H1283       H  0.08523333  0.46786223  0.94793405     0.11400
H1284       H  0.04288354  0.49477645  0.94791311     0.10700
H1285       H  0.03303973  0.47946308  0.97508835     0.10600
H1286       H  0.07524951  0.45254069  0.97518297     0.11200
H1287       H  0.96191289  0.53606481  0.97532674     0.11200
H1288       H  0.91675107  0.55790007  0.97544172     0.11200
H1289       H  0.91026676  0.54526382  0.94796703     0.11300
H1290       H  0.95538055  0.52363708  0.94792008     0.10100
C1291       C  0.71315233  0.65755616  0.03929708    -0.03700
C1292       C  0.71123353  0.67771900  0.03279356    -0.09400
C1293       C  0.72148354  0.67300991  0.02449658    -0.17100
C1294       C  0.73352257  0.64786927  0.02245555     0.25100
C1295       C  0.73475076  0.62732358  0.02873830    -0.18700
C1296       C  0.72461566  0.63199278  0.03705020    -0.07700
C1297       C  0.74507026  0.64323156  0.01399347    -0.14100
C1298       C  0.75563916  0.63889907  0.00707596    -0.13800
C1299       C  0.76941294  0.63291455  0.99904391     0.25000
C1300       C  0.79688789  0.62514197  0.99912566    -0.19200
C1301       C  0.81015758  0.61824110  0.99144551    -0.07700
C1302       C  0.79616884  0.61903247  0.98353569    -0.03800
C1303       C  0.76871976  0.62737635  0.98345967    -0.09100
C1304       C  0.75542557  0.63421885  0.99116975    -0.16700
H1305       H  0.70216496  0.69743032  0.03420090     0.11400
H1306       H  0.72020994  0.68909189  0.01969672     0.10700
H1307       H  0.74372817  0.60763563  0.02722775     0.10600
H1308       H  0.72582560  0.61526278  0.04156385     0.11200
H1309       H  0.80799675  0.62407054  0.00515215     0.11200
H1310       H  0.83130101  0.61192692  0.99171500     0.11200
H1311       H  0.75740938  0.62811694  0.97747025     0.11300
H1312       H  0.73417082  0.64020036  0.99099899     0.10100
C1313       C  0.78357713  0.55076578  0.12299849    -0.03700
C1314       C  0.76473325  0.53567986  0.11810478    -0.09400
C1315       C  0.75383450  0.54653028  0.11048134    -0.17100
C1316       C  0.76166933  0.57256395  0.10761823     0.25100
C1317       C  0.78071833  0.58756497  0.11239698    -0.18700
C1318       C  0.79157286  0.57678232  0.12003928    -0.07700
C1319       C  0.74972866  0.58416635  0.09990802    -0.14100
C1320       C  0.73966537  0.59464108  0.09358987    -0.13800
C1321       C  0.72798463  0.60836823  0.08619137     0.25000
C1322       C  0.72483226  0.63685553  0.08624860    -0.19200
C1323       C  0.71449960  0.65049723  0.07900764    -0.07700
C1324       C  0.70718776  0.63585725  0.07156108    -0.03800
C1325       C  0.70993106  0.60714710  0.07160977    -0.09100
C1326       C  0.72024518  0.59352268  0.07887321    -0.16700
H1327       H  0.75805924  0.51567589  0.12024768     0.11400
H1328       H  0.73907605  0.53472127  0.10686968     0.10700
H1329       H  0.78695203  0.60774048  0.11026885     0.10600
H1330       H  0.80597816  0.58891640  0.12368146     0.11200
H1331       H  0.73082660  0.64861786  0.09184811     0.11200
H1332       H  0.71325104  0.67261048  0.07914298     0.11200
H1333       H  0.70435214  0.59525223  0.06600128     0.11300
H1334       H  0.72249937  0.57146720  0.07873736     0.10100
C1335       C  0.78226662  0.88555356  0.09418933    -0.03700
C1336       C  0.80119543  0.86530125  0.09182073    -0.09400
C1337       C  0.79259086  0.84165462  0.08754437    -0.17100
C1338       C  0.76499945  0.83799578  0.08557044     0.25100
C1339       C  0.74605917  0.85818572  0.08784216    -0.18700
C1340       C  0.75461542  0.88181859  0.09213390    -0.07700
C1341       C  0.75605098  0.81343686  0.08129995    -0.14100
C1342       C  0.74814388  0.79295366  0.07776484    -0.13800
C1343       C  0.73809977  0.76880667  0.07350522     0.25000
C1344       C  0.71199324  0.75901296  0.07535224    -0.19200
C1345       C  0.70185542  0.73606053  0.07104817    -0.07700
C1346       C  0.71750254  0.72268022  0.06471671    -0.03800
C1347       C  0.74407474  0.73236158  0.06308513    -0.09100
C1348       C  0.75422768  0.75524370  0.06743230    -0.16700
H1349       H  0.82261400  0.86766216  0.09332069     0.11400
H1350       H  0.80743309  0.82617999  0.08581378     0.10700
H1351       H  0.72465991  0.85559826  0.08633529     0.10600
H1352       H  0.73960840  0.89712322  0.09386083     0.11200
H1353       H  0.69936852  0.76922573  0.08009061     0.11200
H1354       H  0.68164411  0.72924283  0.07266492     0.11200
H1355       H  0.75726359  0.72217519  0.05851919     0.11300
H1356       H  0.77462637  0.76242474  0.06602239     0.10100
C1357       C  0.77923734  0.92747410  0.13096531    -0.03700
C1358       C  0.75600600  0.93897319  0.13486482    -0.09400
C1359       C  0.74479728  0.92710794  0.14230818    -0.17100
C1360       C  0.75667350  0.90363294  0.14593528     0.25100
C1361       C  0.78015956  0.89254477  0.14219000    -0.18700
C1362       C  0.79134173  0.90432486  0.13477095    -0.07700
C1363       C  0.74490166  0.89053904  0.15343126    -0.14100
C1364       C  0.73678138  0.87858948  0.15976969    -0.13800
C1365       C  0.72963651  0.86430631  0.16762967     0.25000
C1366       C  0.74774301  0.86475183  0.17457819    -0.19200
C1367       C  0.74124533  0.85139487  0.18227307    -0.07700
C1368       C  0.71629324  0.83741710  0.18323674    -0.03800
C1369       C  0.69841690  0.83647882  0.17614622    -0.09100
C1370       C  0.70504005  0.84988010  0.16839757    -0.16700
H1371       H  0.74622631  0.95678210  0.13207161     0.11400
H1372       H  0.72670417  0.93601362  0.14515935     0.10700
H1373       H  0.78966063  0.87450952  0.14494409     0.10600
H1374       H  0.80922701  0.89500412  0.13192525     0.11200
H1375       H  0.76700511  0.87544528  0.17405069     0.11200
H1376       H  0.75607426  0.85179047  0.18743136     0.11200
H1377       H  0.67913158  0.82587477  0.17662762     0.11300
H1378       H  0.69091107  0.84914658  0.16303944     0.10100
C1379       C  0.26240497  0.32302822  0.03951350    -0.03700
C1380       C  0.27493387  0.34548834  0.03537466    -0.09400
C1381       C  0.26675849  0.35390531  0.02713143    -0.17100
C1382       C  0.24561913  0.34027800  0.02288112     0.25100
C1383       C  0.23268697  0.31828663  0.02694733    -0.18700
C1384       C  0.24088951  0.30972469  0.03516140    -0.07700
C1385       C  0.23658325  0.34908515  0.01445001    -0.14100
C1386       C  0.22753157  0.35593661  0.00752141    -0.13800
C1387       C  0.21482913  0.36401088  0.99950058     0.25000
C1388       C  0.18975262  0.37766692  0.99965263    -0.19200
C1389       C  0.17704495  0.38539655  0.99195570    -0.07700
C1390       C  0.18923662  0.37964360  0.98395572    -0.03800
C1391       C  0.21438726  0.36580067  0.98382666    -0.09100
C1392       C  0.22708444  0.35800520  0.99155933    -0.16700
H1393       H  0.29123974  0.35649946  0.03854099     0.11400
H1394       H  0.27683989  0.37112695  0.02410056     0.10700
H1395       H  0.21603641  0.30778893  0.02377895     0.10600
H1396       H  0.22974089  0.29304027  0.03800816     0.11200
H1397       H  0.18000353  0.38239686  0.00573622     0.11200
H1398       H  0.15775342  0.39613136  0.99227399     0.11200
H1399       H  0.22429419  0.36118404  0.97776501     0.11300
H1400       H  0.24645379  0.34737338  0.99134347     0.10100
C1401       C  0.19980360  0.42712622  0.12444349    -0.03700
C1402       C  0.21689184  0.44356793  0.11931463    -0.09400
C1403       C  0.22749938  0.43357637  0.11152957    -0.17100
C1404       C  0.22126715  0.40699299  0.10877271     0.25100
C1405       C  0.20412646  0.39060823  0.11382734    -0.18700
C1406       C  0.19346400  0.40057371  0.12158910    -0.07700
C1407       C  0.23249819  0.39632771  0.10081943    -0.14100
C1408       C  0.24130901  0.38649581  0.09421922    -0.13800
C1409       C  0.25071331  0.37380017  0.08632781     0.25000
C1410       C  0.23314859  0.37179046  0.07924910    -0.19200
C1411       C  0.24156985  0.35842399  0.07173574    -0.07700
C1412       C  0.26774775  0.34669877  0.07116489    -0.03800
C1413       C  0.28541487  0.34904276  0.07826127    -0.09100
C1414       C  0.27697914  0.36257640  0.08577729    -0.16700
H1415       H  0.22213859  0.46409639  0.12133828     0.11400
H1416       H  0.24067642  0.44653086  0.10768979     0.10700
H1417       H  0.19909184  0.37002861  0.11178930     0.10600
H1418       H  0.18043140  0.38739367  0.12539758     0.11200
H1419       H  0.21272351  0.38016132  0.07958582     0.11200
H1420       H  0.22720125  0.35649256  0.06647860     0.11200
H1421       H  0.30570763  0.34036817  0.07801021     0.11300
H1422       H  0.29081460  0.36395394  0.09119898     0.10100
C1423       C  0.19490809  0.09770034  0.09639428    -0.03700
C1424       C  0.22280643  0.10238564  0.09498616    -0.09400
C1425       C  0.23154066  0.12634792  0.09090091    -0.17100
C1426       C  0.21252978  0.14592905  0.08818769     0.25100
C1427       C  0.18470246  0.14146588  0.08958857    -0.18700
C1428       C  0.17591849  0.11748352  0.09366821    -0.07700
C1429       C  0.22162071  0.17035099  0.08385281    -0.14100
C1430       C  0.22961964  0.19037739  0.08007038    -0.13800
C1431       C  0.23947672  0.21376082  0.07535193     0.25000
C1432       C  0.22254686  0.22707196  0.06942473    -0.19200
C1433       C  0.23235306  0.24928291  0.06465468    -0.07700
C1434       C  0.25934895  0.25850299  0.06571639    -0.03800
C1435       C  0.27597605  0.24522718  0.07181537    -0.09100
C1436       C  0.26616837  0.22296711  0.07656296    -0.16700
H1437       H  0.23786926  0.08751507  0.09703169     0.11400
H1438       H  0.25312001  0.12956913  0.08983859     0.10700
H1439       H  0.16980560  0.15647117  0.08750810     0.10600
H1440       H  0.15430900  0.11442674  0.09469515     0.11200
H1441       H  0.20176908  0.22024630  0.06847107     0.11200
H1442       H  0.21861459  0.25939902  0.06021683     0.11200
H1443       H  0.29667485  0.25160552  0.07286971     0.11300
H1444       H  0.27947813  0.21283260  0.08114098     0.10100
C1445       C  0.08627735  0.00863481  0.11023526    -0.03700
C1446       C  0.06767068  0.02585925  0.10594205    -0.09400
C1447       C  0.03964514  0.02059867  0.10622804    -0.17100
C1448       C  0.02962465  0.99800062  0.11079094     0.25100
C1449       C  0.04800005  0.98075634  0.11512617    -0.18700
C1450       C  0.07613315  0.98607029  0.11487423    -0.07700
C1451       C  0.00056299  0.99255952  0.11089513    -0.14100
C1452       C  0.97617498  0.98863221  0.11065952    -0.13800
C1453       C  0.94703314  0.98401773  0.11003460     0.25000
C1454       C  0.93629080  0.96997174  0.10294345    -0.19200
C1455       C  0.90819477  0.96529742  0.10230044    -0.07700
C1456       C  0.89026467  0.97464807  0.10873616    -0.03800
C1457       C  0.90112555  0.98891577  0.11581778    -0.09100
C1458       C  0.92929705  0.99355774  0.11645668    -0.16700
H1459       H  0.07478682  0.04348315  0.10235124     0.11400
H1460       H  0.02577386  0.03414987  0.10285029     0.10700
H1461       H  0.04060297  0.96317011  0.11868075     0.10600
H1462       H  0.08993638  0.97246725  0.11825081     0.11200
H1463       H  0.94966339  0.96251169  0.09791178     0.11200
H1464       H  0.90051133  0.95420036  0.09677714     0.11200
H1465       H  0.88787839  0.99628314  0.12089093     0.11300
H1466       H  0.93724289  0.00449830  0.12197652     0.10100
C1467       C  0.26632559  0.13684986  0.18534379    -0.03700
C1468       C  0.28338948  0.13844141  0.17807111    -0.09400
C1469       C  0.27603241  0.12557608  0.17033323    -0.17100
C1470       C  0.25154139  0.11094601  0.16976437     0.25100
C1471       C  0.23457384  0.10913762  0.17697515    -0.18700
C1472       C  0.24180600  0.12199148  0.18467461    -0.07700
C1473       C  0.24317070  0.09830984  0.16178192    -0.14100
C1474       C  0.23432033  0.08784726  0.15530619    -0.13800
C1475       C  0.22215351  0.07592549  0.14771103     0.25000
C1476       C  0.19886537  0.08786813  0.14407977    -0.19200
C1477       C  0.18704388  0.07664690  0.13668082    -0.07700
C1478       C  0.19836875  0.05328983  0.13278833    -0.03800
C1479       C  0.22157930  0.04118086  0.13652277    -0.09100
C1480       C  0.23336203  0.05241974  0.14394624    -0.16700
H1481       H  0.30243735  0.14952247  0.17835207     0.11400
H1482       H  0.28934808  0.12718912  0.16478909     0.10700
H1483       H  0.21546757  0.09810544  0.17661174     0.10600
H1484       H  0.22767098  0.12089410  0.19001192     0.11200
H1485       H  0.18994025  0.10600696  0.14693365     0.11200
H1486       H  0.16929063  0.08652055  0.13392460     0.11200
H1487       H  0.23081668  0.02325651  0.13364275     0.11300
H1488       H  0.25131963  0.04291313  0.14670385     0.10100
C1489       C  0.40692770  0.44817578  0.79476698    -0.03700
C1490       C  0.41166516  0.46868075  0.80093599    -0.09400
C1491       C  0.43627468  0.48307464  0.80099425    -0.17100
C1492       C  0.45647603  0.47711110  0.79491375     0.25100
C1493       C  0.45204260  0.45651587  0.78880784    -0.18700
C1494       C  0.42738827  0.44215233  0.78872026    -0.07700
C1495       C  0.48159021  0.49233522  0.79490077    -0.14100
C1496       C  0.50253278  0.50523300  0.79494826    -0.13800
C1497       C  0.52777022  0.52023088  0.79509881     0.25000
C1498       C  0.53678572  0.53411047  0.78772755    -0.19200
C1499       C  0.56193808  0.54757560  0.78777505    -0.07700
C1500       C  0.57835796  0.54721476  0.79519999    -0.03800
C1501       C  0.56881287  0.53386624  0.80264150    -0.09100
C1502       C  0.54369281  0.52042809  0.80258086    -0.16700
H1503       H  0.39626377  0.47374187  0.80567170     0.11400
H1504       H  0.43948945  0.49894406  0.80575458     0.10700
H1505       H  0.46756790  0.45167070  0.78408607     0.10600
H1506       H  0.42431318  0.42638406  0.78392310     0.11200
H1507       H  0.52456645  0.53419208  0.78191146     0.11200
H1508       H  0.56873724  0.55785007  0.78197229     0.11200
H1509       H  0.58097150  0.53341000  0.80846562     0.11300
H1510       H  0.53687089  0.50986037  0.80833263     0.10100
C1511       C  0.76984878  0.73347699  0.69402950    -0.03700
C1512       C  0.76266759  0.75649121  0.69897908    -0.09400
C1513       C  0.75421639  0.78072886  0.69495205    -0.17100
C1514       C  0.75286332  0.78223983  0.68594911     0.25100
C1515       C  0.75981588  0.75942361  0.68099125    -0.18700
C1516       C  0.76811456  0.73519832  0.68499059    -0.07700
C1517       C  0.74403602  0.80697901  0.68174225    -0.14100
C1518       C  0.73649731  0.82708083  0.67790251    -0.13800
C1519       C  0.72738825  0.85047540  0.67304126     0.25000
C1520       C  0.70512782  0.86594028  0.67590067    -0.19200
C1521       C  0.69596058  0.88834589  0.67106968    -0.07700
C1522       C  0.70906952  0.89555543  0.66334096    -0.03800
C1523       C  0.73146988  0.87997565  0.66053532    -0.09100
C1524       C  0.74051574  0.85753314  0.66534820    -0.16700
H1525       H  0.76394762  0.75591809  0.70594094     0.11400
H1526       H  0.74881578  0.79828272  0.69885321     0.10700
H1527       H  0.75862728  0.76028582  0.67402197     0.10600
H1528       H  0.77266517  0.71771274  0.68097102     0.11200
H1529       H  0.69478050  0.86059833  0.68183621     0.11200
H1530       H  0.67864702  0.89999571  0.67336704     0.11200
H1531       H  0.74183905  0.88498300  0.65457759     0.11300
H1532       H  0.75767393  0.84562700  0.66305230     0.10100
C1533       C  0.77090931  0.66129797  0.71756749    -0.03700
C1534       C  0.77713916  0.67798874  0.72471118    -0.09400
C1535       C  0.76785246  0.67135798  0.73298561    -0.17100
C1536       C  0.75210691  0.64789035  0.73430685     0.25100
C1537       C  0.74600370  0.63093004  0.72732525    -0.18700
C1538       C  0.75528720  0.63745255  0.71904852    -0.07700
C1539       C  0.74153357  0.64149069  0.74275388    -0.14100
C1540       C  0.73156587  0.63565492  0.74963509    -0.13800
C1541       C  0.71836167  0.62779632  0.75757402     0.25000
C1542       C  0.69278654  0.61518860  0.75730439    -0.19200
C1543       C  0.68009894  0.60673763  0.76492253    -0.07700
C1544       C  0.69280897  0.61078140  0.77294403    -0.03800
C1545       C  0.71831647  0.62385140  0.77319298    -0.09100
C1546       C  0.73102985  0.63227342  0.76554415    -0.16700
H1547       H  0.78908021  0.69642110  0.72385097     0.11400
H1548       H  0.77273747  0.68470105  0.73833431     0.10700
H1549       H  0.73380614  0.61269090  0.72826337     0.10600
H1550       H  0.74973921  0.62362427  0.71395635     0.11200
H1551       H  0.68273183  0.61166333  0.75118912     0.11200
H1552       H  0.66041354  0.59682760  0.76452633     0.11200
H1553       H  0.72854542  0.62727265  0.77928010     0.11300
H1554       H  0.75080356  0.64205536  0.76584237     0.10100
C1555       C  0.59792787  0.97491756  0.64536012    -0.03700
C1556       C  0.57925281  0.95362094  0.64689325    -0.09400
C1557       C  0.55113814  0.95849867  0.64658330    -0.17100
C1558       C  0.54114115  0.98472099  0.64472987     0.25100
C1559       C  0.55960667  0.00597593  0.64304588    -0.18700
C1560       C  0.58780307  0.00111746  0.64334906    -0.07700
C1561       C  0.51200784  0.98975930  0.64476519    -0.14100
C1562       C  0.48756908  0.99335468  0.64501223    -0.13800
C1563       C  0.45832219  0.99747084  0.64546768     0.25000
C1564       C  0.44626506  0.00682619  0.65310419    -0.19200
C1565       C  0.41807239  0.01137386  0.65351197    -0.07700
C1566       C  0.40141856  0.00665796  0.64627773    -0.03800
C1567       C  0.41358482  0.99681736  0.63867628    -0.09100
C1568       C  0.44180682  0.99228334  0.63827881    -0.16700
H1569       H  0.58638077  0.93321133  0.64844340     0.11400
H1570       H  0.53718021  0.94183753  0.64788984     0.10700
H1571       H  0.55222564  0.02637334  0.64159321     0.10600
H1572       H  0.60166355  0.01791362  0.64213284     0.11200
H1573       H  0.45869294  0.01084884  0.65873155     0.11200
H1574       H  0.40935007  0.01893849  0.65946017     0.11200
H1575       H  0.40133855  0.99299672  0.63299965     0.11300
H1576       H  0.45077122  0.98495756  0.63233394     0.10100
C1577       C  0.29408910  0.09848020  0.65965438    -0.03700
C1578       C  0.26617087  0.10301860  0.66112069    -0.09400
C1579       C  0.25726704  0.12683893  0.66524161    -0.17100
C1580       C  0.27610226  0.14647382  0.66797977     0.25100
C1581       C  0.30398525  0.14210190  0.66656991    -0.18700
C1582       C  0.31294691  0.11825686  0.66242408    -0.07700
C1583       C  0.26670609  0.17086075  0.67231484    -0.14100
C1584       C  0.25831062  0.19082348  0.67606754    -0.13800
C1585       C  0.24813333  0.21422809  0.68074956     0.25000
C1586       C  0.26411963  0.22643813  0.68713140    -0.19200
C1587       C  0.25421589  0.24888688  0.69176981    -0.07700
C1588       C  0.22794371  0.25950164  0.69016171    -0.03800
C1589       C  0.21213495  0.24705070  0.68367697    -0.09100
C1590       C  0.22213600  0.22465553  0.67902429    -0.16700
H1591       H  0.25117025  0.08817008  0.65905813     0.11400
H1592       H  0.23566092  0.12992062  0.66630216     0.10700
H1593       H  0.31878656  0.15709838  0.66867790     0.10600
H1594       H  0.33456912  0.11528405  0.66138996     0.11200
H1595       H  0.28434360  0.21866356  0.68851037     0.11200
H1596       H  0.26750571  0.25810986  0.69649667     0.11200
H1597       H  0.19190816  0.25421159  0.68218969     0.11300
H1598       H  0.20950299  0.21539285  0.67410331     0.10100
C1599       C  0.22634471  0.32589774  0.71546309    -0.03700
C1600       C  0.23652621  0.35204585  0.71762715    -0.09400
C1601       C  0.24591692  0.35764966  0.72597618    -0.17100
C1602       C  0.24525319  0.33746299  0.73238773     0.25100
C1603       C  0.23472148  0.31161954  0.73039747    -0.18700
C1604       C  0.22518080  0.30598563  0.72206427    -0.07700
C1605       C  0.25543155  0.34341926  0.74096377    -0.14100
C1606       C  0.26460140  0.34946994  0.74796452    -0.13800
C1607       C  0.27651964  0.35821865  0.75606237     0.25000
C1608       C  0.26689776  0.34809034  0.76396543    -0.19200
C1609       C  0.27830110  0.35719788  0.77175775    -0.07700
C1610       C  0.29955921  0.37651380  0.77174962    -0.03800
C1611       C  0.30917658  0.38640180  0.76378978    -0.09100
C1612       C  0.29774126  0.37735942  0.75603192    -0.16700
H1613       H  0.23692921  0.36861023  0.71303342     0.11400
H1614       H  0.25366747  0.37787376  0.72743614     0.10700
H1615       H  0.23384934  0.29578914  0.73528696     0.10600
H1616       H  0.21695791  0.28586900  0.72074018     0.11200
H1617       H  0.25050024  0.33327697  0.76411025     0.11200
H1618       H  0.27046597  0.34919921  0.77777901     0.11200
H1619       H  0.32545909  0.40132322  0.76355513     0.11300
H1620       H  0.30540391  0.38543165  0.74999351     0.10100
C1621       C  0.62658822  0.84276689  0.44773179    -0.03700
C1622       C  0.60953513  0.82214729  0.45105238    -0.09400
C1623       C  0.59835678  0.80223883  0.44560226    -0.17100
C1624       C  0.60397510  0.80262470  0.43674389     0.25100
C1625       C  0.62156827  0.82264658  0.43343601    -0.18700
C1626       C  0.63282618  0.84253830  0.43888367    -0.07700
C1627       C  0.59043639  0.78356225  0.43100741    -0.14100
C1628       C  0.57774446  0.76851159  0.42627286    -0.13800
C1629       C  0.56103844  0.75129566  0.42079025     0.25000
C1630       C  0.55776405  0.75744884  0.41201353    -0.19200
C1631       C  0.54021441  0.74175198  0.40685333    -0.07700
C1632       C  0.52567482  0.71959795  0.41039431    -0.03800
C1633       C  0.52947843  0.71327905  0.41916995    -0.09100
C1634       C  0.54696054  0.72899590  0.42431354    -0.16700
H1635       H  0.60429410  0.82179777  0.45783132     0.11400
H1636       H  0.58478067  0.78694536  0.44826955     0.10700
H1637       H  0.62607653  0.82329458  0.42660463     0.10600
H1638       H  0.64577017  0.85820888  0.43612809     0.11200
H1639       H  0.56841413  0.77467356  0.40918680     0.11200
H1640       H  0.53766385  0.74722597  0.40013543     0.11200
H1641       H  0.51850036  0.69647364  0.42211182     0.11300
H1642       H  0.54913551  0.72400521  0.43108535     0.10100
C1643       C  0.69705847  0.97633689  0.45742411    -0.03700
C1644       C  0.71809566  0.97553229  0.45127418    -0.09400
C1645       C  0.73316974  0.99919195  0.44938779    -0.17100
C1646       C  0.72730150  0.02386562  0.45360700     0.25100
C1647       C  0.70645121  0.02470567  0.45974571    -0.18700
C1648       C  0.69147035  0.00116947  0.46164595    -0.07700
C1649       C  0.74252833  0.04844750  0.45175760    -0.14100
C1650       C  0.75430125  0.06994136  0.45078746    -0.13800
C1651       C  0.76750059  0.09630048  0.45035864     0.25000
C1652       C  0.75890478  0.11605762  0.44440544    -0.19200
C1653       C  0.77024502  0.14236135  0.44450880    -0.07700
C1654       C  0.79009438  0.14951978  0.45066349    -0.03800
C1655       C  0.79945934  0.12897008  0.45634662    -0.09100
C1656       C  0.78813915  0.10272037  0.45622303    -0.16700
H1657       H  0.72282985  0.95669011  0.44792689     0.11400
H1658       H  0.74931485  0.99825574  0.44463791     0.10700
H1659       H  0.70172141  0.04361635  0.46306617     0.10600
H1660       H  0.67536556  0.00246990  0.46639894     0.11200
H1661       H  0.74300357  0.11133316  0.43979963     0.11200
H1662       H  0.76270073  0.15710640  0.43992235     0.11200
H1663       H  0.81537998  0.13309092  0.46098185     0.11300
H1664       H  0.79516276  0.08756341  0.46082398     0.10100
C1665       C  0.57408591  0.94807829  0.46224761    -0.03700
C1666       C  0.55799788  0.95026628  0.46970795    -0.09400
C1667       C  0.53327734  0.96446793  0.46946775    -0.17100
C1668       C  0.52442458  0.97656485  0.46177641     0.25100
C1669       C  0.54027075  0.97436087  0.45431888    -0.18700
C1670       C  0.56498176  0.96018830  0.45454571    -0.07700
C1671       C  0.49917665  0.99140245  0.46153293    -0.14100
C1672       C  0.47810415  0.00400534  0.46132776    -0.13800
C1673       C  0.45301992  0.01914232  0.46123012     0.25000
C1674       C  0.43867813  0.02277543  0.45351235    -0.19200
C1675       C  0.41413371  0.03733577  0.45346942    -0.07700
C1676       C  0.40373350  0.04835374  0.46116040    -0.03800
C1677       C  0.41836582  0.04472800  0.46886433    -0.09100
C1678       C  0.44287185  0.03019837  0.46889215    -0.16700
H1679       H  0.56459193  0.94115470  0.47572649     0.11400
H1680       H  0.52113457  0.96609774  0.47527590     0.10700
H1681       H  0.53357343  0.98367980  0.44833935     0.10600
H1682       H  0.57701987  0.95882827  0.44871301     0.11200
H1683       H  0.44640493  0.01428113  0.44754692     0.11200
H1684       H  0.40322374  0.03981293  0.44745003     0.11200
H1685       H  0.41079592  0.05299266  0.47487765     0.11300
H1686       H  0.45384926  0.02749747  0.47489425     0.10100
C1687       C  0.35587020  0.15566216  0.44734561    -0.03700
C1688       C  0.34736765  0.15998297  0.43879691    -0.09400
C1689       C  0.36051331  0.17940891  0.43359340    -0.17100
C1690       C  0.38229287  0.19477191  0.43686251     0.25100
C1691       C  0.39011060  0.19133843  0.44547870    -0.18700
C1692       C  0.37698046  0.17199364  0.45068670    -0.07700
C1693       C  0.39770950  0.21274063  0.43126765    -0.14100
C1694       C  0.41171319  0.22672260  0.42658477    -0.13800
C1695       C  0.42945988  0.24256878  0.42104018     0.25000
C1696       C  0.43755659  0.26896787  0.42343653    -0.19200
C1697       C  0.45570626  0.28382801  0.41825936    -0.07700
C1698       C  0.46619824  0.27244475  0.41061961    -0.03800
C1699       C  0.45764199  0.24609521  0.40818286    -0.09100
C1700       C  0.43939308  0.23130173  0.41335236    -0.16700
H1701       H  0.33119114  0.14772701  0.43604976     0.11400
H1702       H  0.35421283  0.18186113  0.42694493     0.10700
H1703       H  0.40689185  0.20305189  0.44810614     0.10600
H1704       H  0.38401478  0.16915004  0.45724422     0.11200
H1705       H  0.43014102  0.27793772  0.42937134     0.11200
H1706       H  0.46201432  0.30399598  0.42033740     0.11200
H1707       H  0.46539224  0.23675494  0.40235237     0.11300
H1708       H  0.43335665  0.21089779  0.41141509     0.10100
C1709       C  0.28293034  0.02021148  0.45554211    -0.03700
C1710       C  0.26338329  0.02003034  0.44890958    -0.09400
C1711       C  0.24902251  0.99594898  0.44696559    -0.17100
C1712       C  0.25411323  0.97178711  0.45160687     0.25100
C1713       C  0.27351467  0.97194178  0.45821525    -0.18700
C1714       C  0.28775367  0.99589712  0.46017647    -0.07700
C1715       C  0.23967235  0.94669402  0.44969420    -0.14100
C1716       C  0.22865512  0.92478956  0.44863531    -0.13800
C1717       C  0.21644866  0.89791192  0.44793790     0.25000
C1718       C  0.19311972  0.89147126  0.45272439    -0.19200
C1719       C  0.18235672  0.86493144  0.45253809    -0.07700
C1720       C  0.19478856  0.84431368  0.44756132    -0.03800
C1721       C  0.21785953  0.85111962  0.44262126    -0.09100
C1722       C  0.22861977  0.87768288  0.44282656    -0.16700
H1723       H  0.25925180  0.03843354  0.44523332     0.11400
H1724       H  0.23403975  0.99616190  0.44183914     0.10700
H1725       H  0.27769990  0.95346767  0.46185956     0.10600
H1726       H  0.30273042  0.99531047  0.46530093     0.11200
H1727       H  0.18350536  0.90684754  0.45672729     0.11200
H1728       H  0.16446855  0.86047798  0.45637040     0.11200
H1729       H  0.22829358  0.83568221  0.43886500     0.11300
H1730       H  0.24681269  0.88226685  0.43914674     0.10100
C1731       C  0.77170180  0.83107838  0.53978227    -0.03700
C1732       C  0.78699474  0.83415323  0.53212860    -0.09400
C1733       C  0.77421073  0.84112124  0.52436927    -0.17100
C1734       C  0.74603718  0.84521624  0.52407382     0.25100
C1735       C  0.73057225  0.84211628  0.53157269    -0.18700
C1736       C  0.74324444  0.83502304  0.53933107    -0.07700
C1737       C  0.73307598  0.85273875  0.51608040    -0.14100
C1738       C  0.72244074  0.85925129  0.50937039    -0.13800
C1739       C  0.70980140  0.86716006  0.50136090     0.25000
C1740       C  0.68247496  0.87536686  0.50123109    -0.19200
C1741       C  0.67017573  0.88307919  0.49346567    -0.07700
C1742       C  0.68504769  0.88258330  0.48571682    -0.03800
C1743       C  0.71248671  0.87433477  0.48589594    -0.09100
C1744       C  0.72478899  0.86670940  0.49368068    -0.16700
H1745       H  0.80869599  0.83104923  0.53192305     0.11400
H1746       H  0.78636698  0.84332784  0.51858041     0.10700
H1747       H  0.70870532  0.84515609  0.53142796     0.10600
H1748       H  0.73076845  0.83257624  0.54503865     0.11200
H1749       H  0.67068316  0.87584151  0.50713206     0.11200
H1750       H  0.64902750  0.88943169  0.49352437     0.11200
H1751       H  0.72445831  0.87395093  0.48003545     0.11300
H1752       H  0.74598265  0.86047892  0.49370997     0.10100
C1753       C  0.77701082  0.84992277  0.57163940    -0.03700
C1754       C  0.75063211  0.86121001  0.57219010    -0.09400
C1755       C  0.74203788  0.87466940  0.57965620    -0.17100
C1756       C  0.75961001  0.87713598  0.58671100     0.25100
C1757       C  0.78590059  0.86593543  0.58624105    -0.18700
C1758       C  0.79451700  0.85229484  0.57876639    -0.07700
C1759       C  0.75026126  0.89050898  0.59447506    -0.14100
C1760       C  0.74147515  0.90101132  0.60096108    -0.13800
C1761       C  0.73019108  0.91245418  0.60877424     0.25000
C1762       C  0.74168481  0.93583569  0.61251808    -0.19200
C1763       C  0.73100903  0.94641657  0.62020548    -0.07700
C1764       C  0.70866547  0.93373614  0.62424525    -0.03800
C1765       C  0.69715709  0.91038471  0.62041368    -0.09100
C1766       C  0.70782099  0.89987046  0.61273485    -0.16700
H1767       H  0.73638767  0.85918808  0.56690129     0.11400
H1768       H  0.72157379  0.88296638  0.57994785     0.10700
H1769       H  0.79969069  0.86762437  0.59166529     0.10600
H1770       H  0.81492234  0.84388630  0.57852436     0.11200
H1771       H  0.75902380  0.94575826  0.60953611     0.11200
H1772       H  0.74041106  0.96431039  0.62303750     0.11200
H1773       H  0.68004674  0.90008359  0.62339499     0.11300
H1774       H  0.69874069  0.88176368  0.60992306     0.10100
C1775       C  0.85456570  0.80555944  0.55837631    -0.03700
C1776       C  0.86259685  0.78545903  0.56437450    -0.09400
C1777       C  0.88948443  0.77573246  0.56455879    -0.17100
C1778       C  0.90896177  0.78636834  0.55887666     0.25100
C1779       C  0.90170256  0.80773815  0.55332598    -0.18700
C1780       C  0.87486725  0.81740285  0.55311942    -0.07700
C1781       C  0.93570227  0.77410094  0.55823188    -0.14100
C1782       C  0.95718489  0.76265992  0.55694284    -0.13800
C1783       C  0.98122736  0.74720885  0.55463152     0.25000
C1784       C  0.00558165  0.74973928  0.55929853    -0.19200
C1785       C  0.02829501  0.73360366  0.55715610    -0.07700
C1786       C  0.02678586  0.71467980  0.55035012    -0.03800
C1787       C  0.00246069  0.71280506  0.54559353    -0.09100
C1788       C  0.97992911  0.72893593  0.54771339    -0.16700
H1789       H  0.84806464  0.77630454  0.56868775     0.11400
H1790       H  0.89483843  0.75929820  0.56894254     0.10700
H1791       H  0.91660096  0.81639452  0.54895176     0.10600
H1792       H  0.86999867  0.83373529  0.54866092     0.11200
H1793       H  0.00690051  0.76387374  0.56465177     0.11200
H1794       H  0.04678352  0.73550964  0.56091577     0.11200
H1795       H  0.00069971  0.69855982  0.54028354     0.11300
H1796       H  0.96130634  0.72684625  0.54402040     0.10100
C1797       C  0.70588743  0.60020659  0.59351033    -0.03700
C1798       C  0.73192441  0.59988659  0.58972773    -0.09400
C1799       C  0.74132918  0.62252991  0.58507178    -0.17100
C1800       C  0.72486780  0.64577301  0.58415715     0.25100
C1801       C  0.69877733  0.64611131  0.58780588    -0.18700
C1802       C  0.68929644  0.62344464  0.59243873    -0.07700
C1803       C  0.73495271  0.66949814  0.57965607    -0.14100
C1804       C  0.74335865  0.68968689  0.57605051    -0.13800
C1805       C  0.75319001  0.71410513  0.57187902     0.25000
C1806       C  0.73562725  0.72981099  0.56676755    -0.19200
C1807       C  0.74508345  0.75363771  0.56276988    -0.07700
C1808       C  0.77227791  0.76213849  0.56384269    -0.03800
C1809       C  0.78966574  0.74632108  0.56904175    -0.09100
C1810       C  0.78022975  0.72241341  0.57300589    -0.16700
H1811       H  0.74510502  0.58223061  0.59043395     0.11400
H1812       H  0.76154233  0.62202213  0.58226953     0.10700
H1813       H  0.68586928  0.66399969  0.58714522     0.10600
H1814       H  0.66918275  0.62426306  0.59529605     0.11200
H1815       H  0.71459529  0.72369730  0.56589469     0.11200
H1816       H  0.73098171  0.76560867  0.55893812     0.11200
H1817       H  0.81062535  0.75206583  0.56995337     0.11300
H1818       H  0.79402516  0.71041996  0.57695093     0.10100
C1819       C  0.72305712  0.47146036  0.59698907    -0.03700
C1820       C  0.71637527  0.46331631  0.58856148    -0.09400
C1821       C  0.73264805  0.44439925  0.58415072    -0.17100
C1822       C  0.75586137  0.43327544  0.58807888     0.25100
C1823       C  0.76247747  0.44096820  0.59652479    -0.18700
C1824       C  0.74619204  0.45992100  0.60095520    -0.07700
C1825       C  0.77340186  0.41502316  0.58326290    -0.14100
C1826       C  0.78816949  0.40111090  0.57880955    -0.13800
C1827       C  0.80620227  0.38649695  0.57304559     0.25000
C1828       C  0.82716763  0.36993150  0.57630160    -0.19200
C1829       C  0.84612553  0.35795061  0.57069177    -0.07700
C1830       C  0.84437693  0.36245145  0.56174903    -0.03800
C1831       C  0.82267842  0.37824142  0.55851416    -0.09100
C1832       C  0.80377430  0.39018124  0.56412271    -0.16700
H1833       H  0.69881394  0.47194558  0.58531381     0.11400
H1834       H  0.72734487  0.43877880  0.57761109     0.10700
H1835       H  0.78044575  0.43266071  0.59963618     0.10600
H1836       H  0.75196299  0.46591233  0.60741811     0.11200
H1837       H  0.82932057  0.36689814  0.58318605     0.11200
H1838       H  0.86265601  0.34594362  0.57336988     0.11200
H1839       H  0.82082740  0.38212663  0.55166488     0.11300
H1840       H  0.78769349  0.40294168  0.56150746     0.10100
C1841       C  0.77475636  0.64846524  0.68481940    -0.03700
C1842       C  0.79260780  0.64820142  0.67773629    -0.09400
C1843       C  0.78445955  0.63659360  0.66989511    -0.17100
C1844       C  0.75834440  0.62532004  0.66905157     0.25100
C1845       C  0.74032245  0.62606601  0.67602147    -0.18700
C1846       C  0.74841900  0.63755105  0.68383813    -0.07700
C1847       C  0.74979679  0.61275686  0.66110549    -0.14100
C1848       C  0.74114882  0.60203503  0.65466134    -0.13800
C1849       C  0.72962754  0.58986228  0.64703122     0.25000
C1850       C  0.71778412  0.60659229  0.64073370    -0.19200
C1851       C  0.70655118  0.59504140  0.63330590    -0.07700
C1852       C  0.70704404  0.56653731  0.63205385    -0.03800
C1853       C  0.71877652  0.54979004  0.63843993    -0.09100
C1854       C  0.72994308  0.56140734  0.64589993    -0.16700
H1855       H  0.81296408  0.65652027  0.67829923     0.11400
H1856       H  0.79854801  0.63625224  0.66452285     0.10700
H1857       H  0.71997256  0.61770301  0.67542016     0.10600
H1858       H  0.73388069  0.63820960  0.68908004     0.11200
H1859       H  0.71733112  0.62861099  0.64154539     0.11200
H1860       H  0.69777735  0.60847134  0.62848501     0.11200
H1861       H  0.71947695  0.52778816  0.63763781     0.11300
H1862       H  0.73893669  0.54823153  0.65075371     0.10100
C1863       C  0.59710500  0.51531008  0.61011077    -0.03700
C1864       C  0.57931177  0.52480205  0.60363917    -0.09400
C1865       C  0.55128525  0.51933701  0.60404791    -0.17100
C1866       C  0.54040970  0.50427106  0.61092966     0.25100
C1867       C  0.55800998  0.49467557  0.61740416    -0.18700
C1868       C  0.58611500  0.50016000  0.61700796    -0.07700
C1869       C  0.51130065  0.49867047  0.61128532    -0.14100
C1870       C  0.48695640  0.49409692  0.61132777    -0.13800
C1871       C  0.45785880  0.48839679  0.61103857     0.25000
C1872       C  0.44806466  0.46627378  0.60620949    -0.19200
C1873       C  0.41999522  0.46114779  0.60565354    -0.07700
C1874       C  0.40107541  0.47808825  0.60990759    -0.03800
C1875       C  0.41101775  0.50001570  0.61486734    -0.09100
C1876       C  0.43916520  0.50513512  0.61541496    -0.16700
H1877       H  0.58705656  0.53656963  0.59825153     0.11400
H1878       H  0.53807424  0.52691592  0.59898101     0.10700
H1879       H  0.55001396  0.48297034  0.62277071     0.10600
H1880       H  0.59922749  0.49259765  0.62209805     0.11200
H1881       H  0.46213759  0.45307034  0.60279807     0.11200
H1882       H  0.41307719  0.44400913  0.60182040     0.11200
H1883       H  0.39702957  0.51335549  0.61825370     0.11300
H1884       H  0.44631926  0.52230213  0.61919526     0.10100
C1885       C  0.28092627  0.52612527  0.59357812    -0.03700
C1886       C  0.26741401  0.54776967  0.59776897    -0.09400
C1887       C  0.25192855  0.56679007  0.59304246    -0.17100
C1888       C  0.24962360  0.56442292  0.58406163     0.25100
C1889       C  0.26349611  0.54324384  0.57984151    -0.18700
C1890       C  0.27904770  0.52431346  0.58454422    -0.07700
C1891       C  0.23201946  0.58268047  0.57919304    -0.14100
C1892       C  0.21650551  0.59631810  0.57486295    -0.13800
C1893       C  0.19708183  0.61055457  0.56939897     0.25000
C1894       C  0.19450365  0.60320644  0.56071172    -0.19200
C1895       C  0.17442872  0.61531139  0.55552745    -0.07700
C1896       C  0.15652153  0.63502869  0.55893960    -0.03800
C1897       C  0.15964047  0.64285910  0.56760798    -0.09100
C1898       C  0.17975869  0.63068932  0.57279705    -0.16700
H1899       H  0.26840234  0.54969080  0.60471333     0.11400
H1900       H  0.24130781  0.58299823  0.59641592     0.10700
H1901       H  0.26186481  0.54102047  0.57291432     0.10600
H1902       H  0.28903909  0.50781387  0.58112365     0.11200
H1903       H  0.20765310  0.58764788  0.55798165     0.11200
H1904       H  0.17251442  0.60875313  0.54889202     0.11200
H1905       H  0.14610117  0.65788337  0.57043271     0.11300
H1906       H  0.18140933  0.63657285  0.57950417     0.10100
C1907       C  0.29025314  0.43207880  0.63098974    -0.03700
C1908       C  0.30047707  0.40708246  0.63415697    -0.09400
C1909       C  0.28963593  0.39528430  0.64164590    -0.17100
C1910       C  0.26840765  0.40825532  0.64609370     0.25100
C1911       C  0.25819935  0.43322011  0.64300141    -0.18700
C1912       C  0.26902504  0.44505795  0.63550716    -0.07700
C1913       C  0.25708171  0.39590184  0.65379147    -0.14100
C1914       C  0.24780930  0.38532340  0.66021757    -0.13800
C1915       C  0.23717433  0.37220941  0.66788995     0.25000
C1916       C  0.23204153  0.38748950  0.67535054    -0.19200
C1917       C  0.22268864  0.37455426  0.68286472    -0.07700
C1918       C  0.21835350  0.34604834  0.68305146    -0.03800
C1919       C  0.22320222  0.33097026  0.67547436    -0.09100
C1920       C  0.23248873  0.34394611  0.66797271    -0.16700
H1921       H  0.31669109  0.39649876  0.63079574     0.11400
H1922       H  0.29773237  0.37596097  0.64394132     0.10700
H1923       H  0.24176376  0.44348259  0.64635881     0.10600
H1924       H  0.26060526  0.46421294  0.63319892     0.11200
H1925       H  0.23552952  0.40937958  0.67539090     0.11200
H1926       H  0.21900772  0.38686205  0.68854074     0.11200
H1927       H  0.22080240  0.30896485  0.67539064     0.11300
H1928       H  0.23647977  0.33181333  0.66227227     0.10100
C1929       C  0.22214068  0.23267759  0.56439755    -0.03700
C1930       C  0.23169600  0.25487094  0.55940995    -0.09400
C1931       C  0.23999769  0.27928941  0.56332395    -0.17100
C1932       C  0.23881089  0.28213836  0.57228374     0.25100
C1933       C  0.22902767  0.26048622  0.57730285    -0.18700
C1934       C  0.22063308  0.23609810  0.57340658    -0.07700
C1935       C  0.24775899  0.30716672  0.57633006    -0.14100
C1936       C  0.25572201  0.32781077  0.57978932    -0.13800
C1937       C  0.26600045  0.35189785  0.58407447     0.25000
C1938       C  0.29401926  0.35729524  0.58411184    -0.19200
C1939       C  0.30425708  0.37993418  0.58857200    -0.07700
C1940       C  0.28658881  0.39747657  0.59307976    -0.03800
C1941       C  0.25841879  0.39219986  0.59290241    -0.09100
C1942       C  0.24820402  0.36956075  0.58842086    -0.16700
H1943       H  0.23246255  0.25370737  0.55245808     0.11400
H1944       H  0.24732553  0.29597626  0.55934652     0.10700
H1945       H  0.22790915  0.26241844  0.58424983     0.10600
H1946       H  0.21322921  0.22006950  0.57754828     0.11200
H1947       H  0.30800784  0.34380995  0.58077489     0.11200
H1948       H  0.32603009  0.38350280  0.58858831     0.11200
H1949       H  0.24432085  0.40541572  0.59629347     0.11300
H1950       H  0.22647940  0.36565296  0.58843489     0.10100
C1951       C  0.21800591  0.16416466  0.53967785    -0.03700
C1952       C  0.22722020  0.13787163  0.53726767    -0.09400
C1953       C  0.23466803  0.13226802  0.52874896    -0.17100
C1954       C  0.23284310  0.15257321  0.52241579     0.25100
C1955       C  0.22283266  0.17846468  0.52461527    -0.18700
C1956       C  0.21525491  0.18412249  0.53313802    -0.07700
C1957       C  0.24209150  0.14685245  0.51376273    -0.14100
C1958       C  0.25148749  0.14111570  0.50679244    -0.13800
C1959       C  0.26470540  0.13335993  0.49884310     0.25000
C1960       C  0.25051418  0.13379042  0.49100035    -0.19200
C1961       C  0.26356013  0.12583007  0.48336058    -0.07700
C1962       C  0.29092290  0.11724205  0.48349690    -0.03800
C1963       C  0.30500970  0.11701734  0.49138904    -0.09100
C1964       C  0.29199920  0.12502843  0.49899129    -0.16700
H1965       H  0.22841680  0.12120158  0.54180676     0.11400
H1966       H  0.24201025  0.11200965  0.52710940     0.10700
H1967       H  0.22107942  0.19435044  0.51976565     0.10600
H1968       H  0.20748455  0.20429565  0.53466369     0.11200
H1969       H  0.22936675  0.14013422  0.49079622     0.11200
H1970       H  0.25219323  0.12608893  0.47737833     0.11200
H1971       H  0.32608388  0.11048759  0.49169953     0.11300
H1972       H  0.30321564  0.12457037  0.50500585     0.10100
C1973       C  0.21558291  0.14132456  0.57194047    -0.03700
C1974       C  0.22253173  0.15429467  0.57970550    -0.09400
C1975       C  0.23130857  0.13906376  0.58683235    -0.17100
C1976       C  0.23323496  0.11052201  0.58635613     0.25100
C1977       C  0.22580694  0.09725430  0.57870947    -0.18700
C1978       C  0.21704597  0.11252192  0.57155613    -0.07700
C1979       C  0.24368832  0.09528046  0.59365565    -0.14100
C1980       C  0.25335428  0.08442365  0.59997969    -0.13800
C1981       C  0.26572364  0.07355492  0.60774120     0.25000
C1982       C  0.25844115  0.04768718  0.61090766    -0.19200
C1983       C  0.27005920  0.03770023  0.61855924    -0.07700
C1984       C  0.28918984  0.05343272  0.62314176    -0.03800
C1985       C  0.29653704  0.07927048  0.61987836    -0.09100
C1986       C  0.28487379  0.08923243  0.61225090    -0.16700
H1987       H  0.22219846  0.17626629  0.58021187     0.11400
H1988       H  0.23709678  0.14964746  0.59268233     0.10700
H1989       H  0.22711721  0.07517402  0.57823492     0.10600
H1990       H  0.21157243  0.10179139  0.56570935     0.11200
H1991       H  0.24362739  0.03533330  0.60750671     0.11200
H1992       H  0.26390886  0.01778409  0.62092926     0.11200
H1993       H  0.31105622  0.09195069  0.62328255     0.11300
H1994       H  0.29065448  0.10930230  0.60990397     0.10100
C1995       C  0.14168594  0.19210615  0.55930920    -0.03700
C1996       C  0.11988337  0.17967802  0.55491375    -0.09400
C1997       C  0.09375721  0.19106954  0.55522970    -0.17100
C1998       C  0.08902026  0.21493780  0.55997051     0.25100
C1999       C  0.11023555  0.22654890  0.56476262    -0.18700
C2000       C  0.13640868  0.21516313  0.56446037    -0.07700
C2001       C  0.06328535  0.22896872  0.55919261    -0.14100
C2002       C  0.04270095  0.24181708  0.55783542    -0.13800
C2003       C  0.01922450  0.25813460  0.55561880     0.25000
C2004       C  0.02029536  0.27570541  0.54848561    -0.19200
C2005       C  0.99773523  0.29182166  0.54631769    -0.07700
C2006       C  0.97374424  0.29050378  0.55125105    -0.03800
C2007       C  0.97276414  0.27272347  0.55838239    -0.09100
C2008       C  0.99539484  0.25665470  0.56055521    -0.16700
H2009       H  0.12323017  0.16168182  0.55099074     0.11400
H2010       H  0.07751453  0.18187726  0.55149851     0.10700
H2011       H  0.10684560  0.24510412  0.56842352     0.10600
H2012       H  0.15277586  0.22542054  0.56783150     0.11200
H2013       H  0.03862420  0.27703034  0.54461558     0.11200
H2014       H  0.99909493  0.30537510  0.54080372     0.11200
H2015       H  0.95459172  0.27140612  0.56231777     0.11300
H2016       H  0.99433297  0.24316604  0.56609405     0.10100
C2017       C  0.76731221  0.01658381  0.09368284    -0.03700
C2018       C  0.75187158  0.03650909  0.09803586    -0.09400
C2019       C  0.73501380  0.05454281  0.09343882    -0.17100
C2020       C  0.73341585  0.05293676  0.08443766     0.25100
C2021       C  0.74905257  0.03342242  0.08005545    -0.18700
C2022       C  0.76587629  0.01538072  0.08463504    -0.07700
C2023       C  0.71525067  0.07068967  0.07968149    -0.14100
C2024       C  0.69985703  0.08446037  0.07540137    -0.13800
C2025       C  0.68126575  0.09936347  0.06990420     0.25000
C2026       C  0.68000522  0.09319217  0.06110763    -0.19200
C2027       C  0.66108574  0.10640405  0.05579362    -0.07700
C2028       C  0.64308133  0.12600691  0.05920303    -0.03800
C2029       C  0.64482191  0.13257143  0.06800769    -0.09100
C2030       C  0.66380371  0.11929658  0.07332674    -0.16700
H2031       H  0.75239522  0.03777721  0.10500069     0.11400
H2032       H  0.72295762  0.06947555  0.09691354     0.10700
H2033       H  0.74795570  0.03189117  0.07309824     0.10600
H2034       H  0.77737153  0.00014725  0.08110519     0.11200
H2035       H  0.69334314  0.07779202  0.05837824     0.11200
H2036       H  0.66014000  0.10081505  0.04904923     0.11200
H2037       H  0.63110034  0.14746035  0.07081626     0.11300
H2038       H  0.66453038  0.12422997  0.08012658     0.10100
C2039       C  0.51530874  0.20636931  0.05006998    -0.03700
C2040       C  0.49151305  0.20504342  0.04503632    -0.09400
C2041       C  0.46832111  0.21992606  0.04734043    -0.17100
C2042       C  0.46849659  0.23644056  0.05469773     0.25100
C2043       C  0.49221292  0.23819113  0.05970615    -0.18700
C2044       C  0.51552338  0.22323183  0.05740707    -0.07700
C2045       C  0.44419368  0.25142278  0.05700154    -0.14100
C2046       C  0.42286599  0.26317242  0.05823485    -0.13800
C2047       C  0.39649370  0.27619709  0.05877464     0.25000
C2048       C  0.38942463  0.29653373  0.05282526    -0.19200
C2049       C  0.36282890  0.30681538  0.05256575    -0.07700
C2050       C  0.34264171  0.29668685  0.05819593    -0.03800
C2051       C  0.35048601  0.27756625  0.06452428    -0.09100
C2052       C  0.37713050  0.26723569  0.06476802    -0.16700
H2053       H  0.49067568  0.19217717  0.03936631     0.11400
H2054       H  0.45015050  0.21840144  0.04340244     0.10700
H2055       H  0.49262732  0.25093600  0.06540938     0.10600
H2056       H  0.53353363  0.22455361  0.06141657     0.11200
H2057       H  0.40425302  0.30384930  0.04819205     0.11200
H2058       H  0.35798662  0.32222903  0.04778815     0.11200
H2059       H  0.33592569  0.26953475  0.06904314     0.11300
H2060       H  0.38234304  0.25157609  0.06944072     0.10100
C2061       C  0.44127193  0.90754317  0.04495493    -0.03700
C2062       C  0.45071134  0.91904395  0.05269280    -0.09400
C2063       C  0.46380424  0.94443883  0.05266583    -0.17100
C2064       C  0.46760916  0.95862169  0.04491577     0.25100
C2065       C  0.45844396  0.94722581  0.03716927    -0.18700
C2066       C  0.44535277  0.92181471  0.03718203    -0.07700
C2067       C  0.48096043  0.98482063  0.04492934    -0.14100
C2068       C  0.49241354  0.00662935  0.04495984    -0.13800
C2069       C  0.50658502  0.03238447  0.04486594     0.25000
C2070       C  0.51509142  0.04366648  0.03702314    -0.19200
C2071       C  0.52940098  0.06836355  0.03689074    -0.07700
C2072       C  0.53539575  0.08206904  0.04461406    -0.03800
C2073       C  0.52661957  0.07073158  0.05247299    -0.09100
C2074       C  0.51229037  0.04599614  0.05259188    -0.16700
H2075       H  0.44784183  0.90848379  0.05876707     0.11400
H2076       H  0.47087763  0.95305268  0.05869303     0.10700
H2077       H  0.46133596  0.95800880  0.03113049     0.10600
H2078       H  0.43827885  0.91342114  0.03112748     0.11200
H2079       H  0.51079765  0.03328904  0.03100990     0.11200
H2080       H  0.53590436  0.07665388  0.03074986     0.11200
H2081       H  0.53096012  0.08088999  0.05851630     0.11300
H2082       H  0.50580876  0.03742297  0.05870036     0.10100
C2083       C  0.20800853  0.96627657  0.09487197    -0.03700
C2084       C  0.20658716  0.96605627  0.08581766    -0.09400
C2085       C  0.22301012  0.94824472  0.08101121    -0.17100
C2086       C  0.24118126  0.93043495  0.08516636     0.25100
C2087       C  0.24235950  0.93018031  0.09419330    -0.18700
C2088       C  0.22584097  0.94790097  0.09901544    -0.07700
C2089       C  0.25924875  0.91325665  0.08014625    -0.14100
C2090       C  0.27480307  0.89993871  0.07577312    -0.13800
C2091       C  0.29396725  0.88543125  0.07034210     0.25000
C2092       C  0.31183114  0.86598456  0.07386940    -0.19200
C2093       C  0.33158880  0.85336452  0.06867945    -0.07700
C2094       C  0.33372461  0.86001828  0.05987966    -0.03800
C2095       C  0.31521314  0.87898139  0.05634387    -0.09100
C2096       C  0.29555416  0.89160633  0.06153734    -0.16700
H2097       H  0.19313600  0.98001666  0.08244223     0.11400
H2098       H  0.22188122  0.94872397  0.07403915     0.10700
H2099       H  0.25637003  0.91661091  0.09750398     0.10600
H2100       H  0.22755409  0.94774175  0.10597380     0.11200
H2101       H  0.31086642  0.86098758  0.08066741     0.11200
H2102       H  0.34558393  0.83889742  0.07158860     0.11200
H2103       H  0.31639427  0.88462776  0.04960171     0.11300
H2104       H  0.28193297  0.90661103  0.05871227     0.10100
C2105       C  0.46205300  0.77926934  0.05094661    -0.03700
C2106       C  0.46100556  0.76137532  0.05806011    -0.09400
C2107       C  0.48340874  0.74458425  0.06007285    -0.17100
C2108       C  0.50703425  0.74546448  0.05498424     0.25100
C2109       C  0.50789422  0.76285374  0.04781443    -0.18700
C2110       C  0.48565395  0.77957836  0.04580873    -0.07700
C2111       C  0.53085896  0.72929640  0.05709907    -0.14100
C2112       C  0.55232369  0.71752513  0.05816794    -0.13800
C2113       C  0.57922887  0.70542515  0.05863723     0.25000
C2114       C  0.60006685  0.71865698  0.06317173    -0.19200
C2115       C  0.62685387  0.70876199  0.06280558    -0.07700
C2116       C  0.63333776  0.68559198  0.05785185    -0.03800
C2117       C  0.61211099  0.67188568  0.05354477    -0.09100
C2118       C  0.58529027  0.68171938  0.05394309    -0.16700
H2119       H  0.44307916  0.76066040  0.06212130     0.11400
H2120       H  0.48241767  0.73119963  0.06563667     0.10700
H2121       H  0.52596387  0.76374618  0.04381191     0.10600
H2122       H  0.48708995  0.79304188  0.04027525     0.11200
H2123       H  0.59579670  0.73717749  0.06675856     0.11200
H2124       H  0.64261464  0.72010533  0.06604237     0.11200
H2125       H  0.61635325  0.65385515  0.04972475     0.11300
H2126       H  0.56943709  0.67128862  0.05037412     0.10100
C2127       C  0.01876349  0.21662659  0.91322043    -0.03700
C2128       C  0.04114138  0.22830321  0.90889988    -0.09400
C2129       C  0.05978622  0.24483610  0.91336897    -0.17100
C2130       C  0.05622243  0.24995590  0.92219340     0.25100
C2131       C  0.03421389  0.23804089  0.92653020    -0.18700
C2132       C  0.01569479  0.22149611  0.92209963    -0.07700
C2133       C  0.07420923  0.26824789  0.92681343    -0.14100
C2134       C  0.08726576  0.28411221  0.93114525    -0.13800
C2135       C  0.10056995  0.30373228  0.93671372     0.25000
C2136       C  0.08862152  0.31070198  0.94461004    -0.19200
C2137       C  0.10045840  0.33070609  0.94985884    -0.07700
C2138       C  0.12447993  0.34413149  0.94729168    -0.03800
C2139       C  0.13668524  0.33668401  0.93943196    -0.09100
C2140       C  0.12479551  0.31661941  0.93417990    -0.16700
H2141       H  0.04396722  0.22501043  0.90205848     0.11400
H2142       H  0.07667670  0.25397054  0.90991714     0.10700
H2143       H  0.03109446  0.24189952  0.93333388     0.10600
H2144       H  0.99858593  0.21299346  0.92560005     0.11200
H2145       H  0.06987414  0.30096599  0.94665465     0.11200
H2146       H  0.09051305  0.33603114  0.95585685     0.11200
H2147       H  0.15513266  0.34671441  0.93727432     0.11300
H2148       H  0.13426439  0.31148060  0.92808749     0.10100
C2149       C  0.72639011  0.26999970  0.94312173    -0.03700
C2150       C  0.73536959  0.24332992  0.94518515    -0.09400
C2151       C  0.75827701  0.23206460  0.94115240    -0.17100
C2152       C  0.77256311  0.24715151  0.93496470     0.25100
C2153       C  0.76367773  0.27348288  0.93278459    -0.18700
C2154       C  0.74075158  0.28476013  0.93679492    -0.07700
C2155       C  0.79631102  0.23572855  0.93083272    -0.14100
C2156       C  0.81635494  0.22704392  0.92723997    -0.13800
C2157       C  0.84045125  0.21794247  0.92275257     0.25000
C2158       C  0.85871247  0.23722613  0.91941740    -0.19200
C2159       C  0.88188339  0.22866025  0.91492174    -0.07700
C2160       C  0.88709094  0.20063889  0.91367448    -0.03800
C2161       C  0.86873845  0.18134552  0.91707157    -0.09100
C2162       C  0.84556587  0.18996758  0.92159476    -0.16700
H2163       H  0.72451568  0.23086433  0.94981358     0.11400
H2164       H  0.76478961  0.21155349  0.94284830     0.10700
H2165       H  0.77451385  0.28535931  0.92798218     0.10600
H2166       H  0.73463990  0.30512170  0.93495700     0.11200
H2167       H  0.85498560  0.25891917  0.92026307     0.11200
H2168       H  0.89566078  0.24398121  0.91238387     0.11200
H2169       H  0.87229934  0.15963534  0.91623159     0.11300
H2170       H  0.83159944  0.17484030  0.92415094     0.10100
C2171       C  0.61200621  0.18910899  0.02199705    -0.03700
C2172       C  0.62432158  0.21507967  0.02206405    -0.09400
C2173       C  0.63204904  0.22768645  0.01431740    -0.17100
C2174       C  0.62752745  0.21449897  0.00642946     0.25100
C2175       C  0.61597342  0.18833154  0.00634849    -0.18700
C2176       C  0.60833191  0.17569207  0.01406822    -0.07700
C2177       C  0.63388033  0.22799828  0.99839340    -0.14100
C2178       C  0.63853498  0.23884265  0.99154475    -0.13800
C2179       C  0.64416537  0.25133774  0.98329583     0.25000
C2180       C  0.64781718  0.23502123  0.97599386    -0.19200
C2181       C  0.65432484  0.24700704  0.96806619    -0.07700
C2182       C  0.65761721  0.27558359  0.96726390    -0.03800
C2183       C  0.65293335  0.29186562  0.97463978    -0.09100
C2184       C  0.64636051  0.27978459  0.98256442    -0.16700
H2185       H  0.62746369  0.22584465  0.02807634     0.11400
H2186       H  0.64107106  0.24790481  0.01447012     0.10700
H2187       H  0.61241631  0.17787566  0.00030041     0.10600
H2188       H  0.59891381  0.15567627  0.01380977     0.11200
H2189       H  0.64596135  0.21297021  0.97644306     0.11200
H2190       H  0.65739973  0.23384013  0.96254139     0.11200
H2191       H  0.65433178  0.31384853  0.97447881     0.11300
H2192       H  0.64325243  0.29267500  0.98815477     0.10100
C2193       C  0.78266852  0.52656685  0.95534869    -0.03700
C2194       C  0.78551729  0.50157878  0.95975979    -0.09400
C2195       C  0.76917669  0.47921319  0.95763251    -0.17100
C2196       C  0.74978902  0.48139901  0.95105321     0.25100
C2197       C  0.74655448  0.50631312  0.94667461    -0.18700
C2198       C  0.76291183  0.52881671  0.94881369    -0.07700
C2199       C  0.73370889  0.45774488  0.94883098    -0.14100
C2200       C  0.72176909  0.43646695  0.94766738    -0.13800
C2201       C  0.70909611  0.40986587  0.94725698     0.25000
C2202       C  0.68666608  0.40406438  0.95250244    -0.19200
C2203       C  0.67647622  0.37739261  0.95301662    -0.07700
C2204       C  0.68874228  0.35591494  0.94835298    -0.03800
C2205       C  0.71039688  0.36227571  0.94276253    -0.09100
C2206       C  0.72057757  0.38901734  0.94224754    -0.16700
H2207       H  0.80051763  0.49924603  0.96482950     0.11400
H2208       H  0.77183085  0.46009081  0.96108314     0.10700
H2209       H  0.73158038  0.50828100  0.94158043     0.10600
H2210       H  0.76030436  0.54783787  0.94531390     0.11200
H2211       H  0.67755286  0.41999074  0.95640954     0.11200
H2212       H  0.65933710  0.37352037  0.95723148     0.11200
H2213       H  0.72040580  0.34649301  0.93910045     0.11300
H2214       H  0.73803442  0.39319738  0.93818173     0.10100
C2215       C  0.01220324  0.89744971  0.89658696    -0.03700
C2216       C  0.02865055  0.91643230  0.90097592    -0.09400
C2217       C  0.02247997  0.94438147  0.90079474    -0.17100
C2218       C  0.99969892  0.95391526  0.89626318     0.25100
C2219       C  0.98307444  0.93515044  0.89189141    -0.18700
C2220       C  0.98930995  0.90707796  0.89203560    -0.07700
C2221       C  0.99356509  0.98292006  0.89621726    -0.14100
C2222       C  0.98953462  0.00735821  0.89656205    -0.13800
C2223       C  0.98527883  0.03659484  0.89734780     0.25000
C2224       C  0.99482821  0.05457296  0.89097725    -0.19200
C2225       C  0.99061560  0.08287091  0.89176682    -0.07700
C2226       C  0.97676282  0.09360876  0.89894627    -0.03800
C2227       C  0.96754678  0.07544651  0.90536268    -0.09100
C2228       C  0.97177548  0.04719458  0.90456413    -0.16700
H2229       H  0.04641576  0.90968353  0.90453857     0.11400
H2230       H  0.03550822  0.95858558  0.90421265     0.10700
H2231       H  0.96531944  0.94219814  0.88837844     0.10600
H2232       H  0.97621697  0.89292892  0.88862847     0.11200
H2233       H  0.00540643  0.04671607  0.88537455     0.11200
H2234       H  0.99788545  0.09631152  0.88671137     0.11200
H2235       H  0.95676730  0.08305323  0.91095828     0.11300
H2236       H  0.96436994  0.03359683  0.90956307     0.10100
C2237       C  0.85869271  0.65367668  0.94515115    -0.03700
C2238       C  0.85962414  0.64938004  0.93619395    -0.09400
C2239       C  0.87249242  0.66836754  0.93079147    -0.17100
C2240       C  0.88440725  0.69193034  0.93426705     0.25100
C2241       C  0.88276573  0.69675769  0.94314382    -0.18700
C2242       C  0.87003905  0.67774466  0.94855633    -0.07700
C2243       C  0.89972593  0.71029816  0.92883452    -0.14100
C2244       C  0.91393023  0.72502472  0.92448772    -0.13800
C2245       C  0.93226688  0.74188341  0.91952755     0.25000
C2246       C  0.94174069  0.76667712  0.92290236    -0.19200
C2247       C  0.96078532  0.78228015  0.91832518    -0.07700
C2248       C  0.97058141  0.77326955  0.91030376    -0.03800
C2249       C  0.96058340  0.74860469  0.90687853    -0.09100
C2250       C  0.94159997  0.73299029  0.91147656    -0.16700
H2251       H  0.85124154  0.63091575  0.93340349     0.11400
H2252       H  0.87373438  0.66433688  0.92393872     0.10700
H2253       H  0.89195049  0.71487583  0.94591396     0.10600
H2254       H  0.86967139  0.68154224  0.95542953     0.11200
H2255       H  0.93474087  0.77373640  0.92913664     0.11200
H2256       H  0.96815245  0.80117172  0.92111806     0.11200
H2257       H  0.96785265  0.74110715  0.90072952     0.11300
H2258       H  0.93452480  0.71378660  0.90881272     0.10100
C2259       C  0.09837774  0.78846954  0.91259388    -0.03700
C2260       C  0.10897288  0.76196058  0.91152866    -0.09400
C2261       C  0.13129338  0.75322793  0.91641910    -0.17100
C2262       C  0.14311311  0.77078439  0.92247866     0.25100
C2263       C  0.13263060  0.79720510  0.92358987    -0.18700
C2264       C  0.11044862  0.80605837  0.91864920    -0.07700
C2265       C  0.16634164  0.76181974  0.92740327    -0.14100
C2266       C  0.18634467  0.75396756  0.93118999    -0.13800
C2267       C  0.21099857  0.74419473  0.93517957     0.25000
C2268       C  0.22319374  0.75890517  0.94185640    -0.19200
C2269       C  0.24788367  0.74999967  0.94540178    -0.07700
C2270       C  0.26081452  0.72600172  0.94236944    -0.03800
C2271       C  0.24813614  0.71149619  0.93562068    -0.09100
C2272       C  0.22348566  0.72046093  0.93209925    -0.16700
H2273       H  0.10016928  0.74809644  0.90685877     0.11400
H2274       H  0.13936831  0.73280874  0.91546163     0.10700
H2275       H  0.14166986  0.81098928  0.92824197     0.10600
H2276       H  0.10263778  0.82657497  0.91959563     0.11200
H2277       H  0.21384314  0.77751186  0.94423969     0.11200
H2278       H  0.25689754  0.76247325  0.95037888     0.11200
H2279       H  0.25690214  0.69318679  0.93294716     0.11300
H2280       H  0.21430001  0.70897838  0.92688602     0.10100
C2281       C  0.33283394  0.72254478  0.96574266    -0.03700
C2282       C  0.35740957  0.73651203  0.96750245    -0.09400
C2283       C  0.36313329  0.74609346  0.97581929    -0.17100
C2284       C  0.34457952  0.74193488  0.98254365     0.25100
C2285       C  0.32041990  0.72771288  0.98093647    -0.18700
C2286       C  0.31468946  0.71801531  0.97265618    -0.07700
C2287       C  0.35003334  0.75268278  0.99104396    -0.14100
C2288       C  0.35427442  0.76224564  0.99810106    -0.13800
C2289       C  0.35944646  0.77458531  0.00639896     0.25000
C2290       C  0.36078606  0.75845482  0.01387155    -0.19200
C2291       C  0.36658586  0.77049893  0.02185915    -0.07700
C2292       C  0.37127517  0.79881566  0.02244945    -0.03800
C2293       C  0.36944929  0.81489983  0.01494264    -0.09100
C2294       C  0.36353373  0.80287097  0.00698765    -0.16700
H2295       H  0.37239360  0.74041896  0.96258533     0.11400
H2296       H  0.38198862  0.75699220  0.97698463     0.10700
H2297       H  0.30585496  0.72429829  0.98607215     0.10600
H2298       H  0.29569234  0.70727833  0.97159012     0.11200
H2299       H  0.35767029  0.73654088  0.01350939     0.11200
H2300       H  0.36805319  0.75760446  0.02752515     0.11200
H2301       H  0.37298644  0.83675964  0.01519787     0.11300
H2302       H  0.36249973  0.81560631  0.00127232     0.10100
C2303       C  0.20750625  0.47169649  0.95508072    -0.03700
C2304       C  0.21779140  0.47485730  0.94667216    -0.09400
C2305       C  0.23389311  0.49764702  0.94454645    -0.17100
C2306       C  0.23994747  0.51741175  0.95081042     0.25100
C2307       C  0.23019896  0.51399718  0.95921513    -0.18700
C2308       C  0.21413576  0.49138349  0.96133552    -0.07700
C2309       C  0.25524804  0.54179472  0.94869376    -0.14100
C2310       C  0.26686234  0.56338095  0.94765050    -0.13800
C2311       C  0.27923769  0.59018776  0.94711762     0.25000
C2312       C  0.30459091  0.59514279  0.95096532    -0.19200
C2313       C  0.31530779  0.62172177  0.95116641    -0.07700
C2314       C  0.30084077  0.64373894  0.94749577    -0.03800
C2315       C  0.27576899  0.63842726  0.94346101    -0.09100
C2316       C  0.26502471  0.61190155  0.94328955    -0.16700
H2317       H  0.21294942  0.46005090  0.94172007     0.11400
H2318       H  0.24126014  0.50004460  0.93800857     0.10700
H2319       H  0.23467439  0.52909135  0.96412197     0.10600
H2320       H  0.20654709  0.48953781  0.96786413     0.11200
H2321       H  0.31576115  0.57859576  0.95400246     0.11200
H2322       H  0.33466868  0.62516953  0.95432898     0.11200
H2323       H  0.26376319  0.65492518  0.94082262     0.11300
H2324       H  0.24523206  0.60848722  0.94039294     0.10100
C2325       C  0.71957232  0.02412846  0.66089644    -0.03700
C2326       C  0.74063564  0.03868716  0.65679849    -0.09400
C2327       C  0.75637993  0.05757854  0.66140849    -0.17100
C2328       C  0.75117369  0.06234566  0.67015746     0.25100
C2329       C  0.72965528  0.04856431  0.67420651    -0.18700
C2330       C  0.71398923  0.02956290  0.66961981    -0.07700
C2331       C  0.76884797  0.08003348  0.67510842    -0.14100
C2332       C  0.78431841  0.09330513  0.67950413    -0.13800
C2333       C  0.80341083  0.10722866  0.68508241     0.07400
C2334       C  0.80214065  0.10317615  0.69401106    -0.19200
C2335       C  0.82173025  0.11488562  0.69942442    -0.07700
C2336       C  0.84293814  0.13088036  0.69599084    -0.03800
C2337       C  0.84371392  0.13547109  0.68703772    -0.09100
C2338       C  0.82410035  0.12367355  0.68162139    -0.16700
H2339       H  0.74548495  0.03485649  0.65009970     0.11400
H2340       H  0.77300859  0.06799490  0.65819627     0.10700
H2341       H  0.72540110  0.05200448  0.68097004     0.10600
H2342       H  0.69788929  0.01869444  0.67294565     0.11200
H2343       H  0.78632363  0.09045366  0.69678043     0.11200
H2344       H  0.82063500  0.11089505  0.70628328     0.11200
H2345       H  0.85988717  0.14755687  0.68420172     0.11300
H2346       H  0.82541353  0.12691207  0.67472507     0.10100
C2347       C  0.14465634  0.29806448  0.69771998    -0.03700
C2348       C  0.13667080  0.27842523  0.69158151    -0.09400
C2349       C  0.10997475  0.26819757  0.69144696    -0.17100
C2350       C  0.09068131  0.27748893  0.69741619     0.25100
C2351       C  0.09800367  0.29791503  0.70328104    -0.18700
C2352       C  0.12461296  0.30823915  0.70340128    -0.07700
C2353       C  0.06411221  0.26474625  0.69799433    -0.14100
C2354       C  0.04273174  0.25297713  0.69918175    -0.13800
C2355       C  0.01863190  0.23739273  0.70138349     0.25000
C2356       C  0.99373528  0.24183392  0.69715268    -0.19200
C2357       C  0.97072906  0.22619429  0.69933112    -0.07700
C2358       C  0.97240025  0.20591099  0.70576108    -0.03800
C2359       C  0.99737812  0.20186894  0.71002714    -0.09100
C2360       C  0.02024303  0.21745930  0.70785467    -0.16700
H2361       H  0.15116969  0.26993122  0.68711064     0.11400
H2362       H  0.10465652  0.25237226  0.68686554     0.10700
H2363       H  0.08330610  0.30541902  0.70792260     0.10600
H2364       H  0.12948975  0.32389002  0.70807157     0.11200
H2365       H  0.99214420  0.25723002  0.69214526     0.11200
H2366       H  0.95177211  0.22973963  0.69593341     0.11200
H2367       H  0.99934377  0.18643214  0.71500758     0.11300
H2368       H  0.03929183  0.21382343  0.71120088     0.10100
C2369       C  0.94643864  0.07898191  0.71063701    -0.03700
C2370       C  0.94851706  0.06262164  0.71806699    -0.09400
C2371       C  0.96288336  0.03790403  0.71784803    -0.17100
C2372       C  0.97525946  0.02918758  0.71020294     0.25100
C2373       C  0.97311214  0.04525673  0.70275079    -0.18700
C2374       C  0.95879211  0.07003036  0.70296164    -0.07700
C2375       C  0.99021565  0.00381676  0.71004627    -0.14100
C2376       C  0.00269569  0.98253327  0.71005409    -0.13800
C2377       C  0.01760761  0.95713010  0.71011203     0.25000
C2378       C  0.01651072  0.93970477  0.70297192    -0.19200
C2379       C  0.03119491  0.91516071  0.70297822    -0.07700
C2380       C  0.04713984  0.90773479  0.71014145    -0.03800
C2381       C  0.04798621  0.92523933  0.71731759    -0.09100
C2382       C  0.03331887  0.94981409  0.71729251    -0.16700
H2383       H  0.93926335  0.06905647  0.72406707     0.11400
H2384       H  0.96442845  0.02563971  0.72365308     0.10700
H2385       H  0.98259672  0.03870631  0.69679532     0.10600
H2386       H  0.95751400  0.08224165  0.69714279     0.11200
H2387       H  0.00434829  0.94511129  0.69739304     0.11200
H2388       H  0.03002945  0.90197262  0.69738868     0.11200
H2389       H  0.06000321  0.91995619  0.72293544     0.11300
H2390       H  0.03426178  0.96311570  0.72286367     0.10100
C2391       C  0.27688847  0.96606398  0.66004229    -0.03700
C2392       C  0.26343080  0.94479276  0.65566801    -0.09400
C2393       C  0.24710382  0.92608452  0.66020704    -0.17100
C2394       C  0.24400923  0.92841437  0.66916498     0.25100
C2395       C  0.25757641  0.94939196  0.67354600    -0.18700
C2396       C  0.27387702  0.96802517  0.66903655    -0.07700
C2397       C  0.22636863  0.90999587  0.67389523    -0.14100
C2398       C  0.21124171  0.89606531  0.67823215    -0.13800
C2399       C  0.19252207  0.88133680  0.68376127     0.25000
C2400       C  0.17148797  0.86554644  0.68022186    -0.19200
C2401       C  0.15193592  0.85336166  0.68559009    -0.07700
C2402       C  0.15311151  0.85689939  0.69457898    -0.03800
C2403       C  0.17484170  0.87196578  0.69809630    -0.09100
C2404       C  0.19435465  0.88409286  0.69272850    -0.16700
H2405       H  0.26523885  0.94284986  0.64874064     0.11400
H2406       H  0.23666226  0.91002580  0.65671991     0.10700
H2407       H  0.25531094  0.95155468  0.68045755     0.10600
H2408       H  0.28381643  0.98425577  0.67258703     0.11200
H2409       H  0.16977771  0.86323997  0.67330055     0.11200
H2410       H  0.13543125  0.84191958  0.68269335     0.11200
H2411       H  0.17631746  0.87506466  0.70498984     0.11300
H2412       H  0.21047334  0.89623674  0.69556794     0.10100
C2413       C  0.02333636  0.78173304  0.70539562    -0.03700
C2414       C  0.99890161  0.78567329  0.70996996    -0.09400
C2415       C  0.97597406  0.76973793  0.70817646    -0.17100
C2416       C  0.97702963  0.74959418  0.70178579     0.25100
C2417       C  0.00133856  0.74532966  0.69723328    -0.18700
C2418       C  0.02439181  0.76130685  0.69902788    -0.07700
C2419       C  0.95290852  0.73377573  0.69991441    -0.14100
C2420       C  0.93147384  0.72208700  0.69886827    -0.13800
C2421       C  0.90463662  0.71013101  0.69832740     0.25000
C2422       C  0.88371877  0.72411988  0.69403620    -0.19200
C2423       C  0.85691345  0.71446769  0.69442891    -0.07700
C2424       C  0.85061314  0.69072061  0.69916438    -0.03800
C2425       C  0.87192232  0.67615623  0.70315805    -0.09100
C2426       C  0.89874351  0.68581501  0.70273992    -0.16700
H2427       H  0.99741823  0.80126130  0.71490161     0.11400
H2428       H  0.95732448  0.77327151  0.71174507     0.10700
H2429       H  0.00242410  0.72981293  0.69226762     0.10600
H2430       H  0.04291336  0.75787205  0.69539441     0.11200
H2431       H  0.88794982  0.74305934  0.69065105     0.11200
H2432       H  0.84098214  0.72641337  0.69139240     0.11200
H2433       H  0.86776304  0.65762812  0.70676033     0.11300
H2434       H  0.91472460  0.67479237  0.70609339     0.10100
C2435       C  0.88032174  0.19049019  0.73431065    -0.03700
C2436       C  0.88579674  0.17790767  0.74228874    -0.09400
C2437       C  0.87784804  0.19037594  0.75000984    -0.17100
C2438       C  0.86432634  0.21564011  0.74990844     0.25100
C2439       C  0.85883011  0.22837123  0.74198491    -0.18700
C2440       C  0.86673496  0.21587194  0.73423647    -0.07700
C2441       C  0.85605398  0.22814407  0.75795796    -0.14100
C2442       C  0.84965947  0.23720789  0.76493619    -0.13800
C2443       C  0.84279017  0.24662963  0.77351982     0.25000
C2444       C  0.81693073  0.25731783  0.77530758    -0.19200
C2445       C  0.81031491  0.26585882  0.78367547    -0.07700
C2446       C  0.82926445  0.26359614  0.79049353    -0.03800
C2447       C  0.85537556  0.25306148  0.78855069    -0.09100
C2448       C  0.86195889  0.24467210  0.78017039    -0.16700
H2449       H  0.89627778  0.15840745  0.74256631     0.11400
H2450       H  0.88226230  0.18027052  0.75607400     0.10700
H2451       H  0.84843056  0.24793157  0.74179211     0.10600
H2452       H  0.86235990  0.22611671  0.72819705     0.11200
H2453       H  0.80183846  0.25903593  0.77023882     0.11200
H2454       H  0.79020106  0.27418944  0.78485553     0.11200
H2455       H  0.87117057  0.25152216  0.79334730     0.11300
H2456       H  0.88212637  0.23661450  0.77887994     0.10100
C2457       C  0.92762859  0.20486839  0.87661931    -0.03700
C2458       C  0.90783212  0.19021778  0.87197334    -0.09400
C2459       C  0.89609053  0.20142054  0.86451815    -0.17100
C2460       C  0.90387188  0.22745191  0.86160887     0.25100
C2461       C  0.92373709  0.24204679  0.86616876    -0.18700
C2462       C  0.93557070  0.23083522  0.87360346    -0.07700
C2463       C  0.89173701  0.23896509  0.85389880    -0.14100
C2464       C  0.88176233  0.24757500  0.84728490    -0.13800
C2465       C  0.87004518  0.25575952  0.83910574     0.25000
C2466       C  0.85859597  0.28184878  0.83795450    -0.19200
C2467       C  0.84657087  0.28904582  0.83004851    -0.07700
C2468       C  0.84608841  0.27033417  0.82316875    -0.03800
C2469       C  0.85791690  0.24434384  0.82437063    -0.09100
C2470       C  0.86971622  0.23714658  0.83226317    -0.16700
H2471       H  0.90125526  0.17021043  0.87414449     0.11400
H2472       H  0.88083781  0.18982216  0.86104607     0.10700
H2473       H  0.93002064  0.26215722  0.86399727     0.10600
H2474       H  0.95064050  0.24267462  0.87706825     0.11200
H2475       H  0.85873369  0.29651553  0.84318079     0.11200
H2476       H  0.83772299  0.30922486  0.82930526     0.11200
H2477       H  0.85738347  0.22922662  0.81928202     0.11300
H2478       H  0.87833390  0.21686921  0.83305785     0.10100
C2479       C  0.70553844  0.51612997  0.80131376    -0.03700
C2480       C  0.72381066  0.51679107  0.80830618    -0.09400
C2481       C  0.73942008  0.49359270  0.81043089    -0.17100
C2482       C  0.73700573  0.46950357  0.80557684     0.25100
C2483       C  0.71898509  0.46886907  0.79858595    -0.18700
C2484       C  0.70338764  0.49190818  0.79647650    -0.07700
C2485       C  0.75262340  0.44519535  0.80767714    -0.14100
C2486       C  0.76429562  0.42359363  0.80876495    -0.13800
C2487       C  0.77663918  0.39668232  0.80930223     0.25000
C2488       C  0.76275834  0.37513752  0.81334968    -0.19200
C2489       C  0.77327909  0.34845475  0.81309904    -0.07700
C2490       C  0.79771040  0.34286228  0.80870853    -0.03800
C2491       C  0.81193993  0.36469932  0.80486866    -0.09100
C2492       C  0.80152065  0.39140788  0.80519098    -0.16700
H2493       H  0.72584012  0.53511693  0.81216635     0.11400
H2494       H  0.75324933  0.49441947  0.81586537     0.10700
H2495       H  0.71687423  0.45044438  0.79476844     0.10600
H2496       H  0.68952213  0.49070656  0.79106041     0.11200
H2497       H  0.74338191  0.37881255  0.81648701     0.11200
H2498       H  0.76166471  0.33201352  0.81600030     0.11200
H2499       H  0.83089313  0.36101465  0.80148970     0.11300
H2500       H  0.81248653  0.40780060  0.80201508     0.10100
C2501       C  0.59803808  0.19768814  0.84513864    -0.03700
C2502       C  0.62399317  0.18910522  0.84787585    -0.09400
C2503       C  0.64731199  0.19676548  0.84326592    -0.17100
C2504       C  0.64499980  0.21308761  0.83586730     0.25100
C2505       C  0.61918325  0.22141391  0.83304086    -0.18700
C2506       C  0.59585396  0.21376742  0.83763719    -0.07700
C2507       C  0.66910553  0.22188501  0.83130985    -0.14100
C2508       C  0.68925480  0.22983360  0.82759955    -0.13800
C2509       C  0.71332956  0.23981135  0.82327295     0.25000
C2510       C  0.73649287  0.24683878  0.82804746    -0.19200
C2511       C  0.75978205  0.25672801  0.82387831    -0.07700
C2512       C  0.76026218  0.25969073  0.81485883    -0.03800
C2513       C  0.73693190  0.25251808  0.81010514    -0.09100
C2514       C  0.71362047  0.24270494  0.81429094    -0.16700
H2515       H  0.62628669  0.17672699  0.85362776     0.11400
H2516       H  0.66716338  0.19019707  0.84552503     0.10700
H2517       H  0.61709970  0.23405842  0.82733406     0.10600
H2518       H  0.57613458  0.22069898  0.83537710     0.11200
H2519       H  0.73657892  0.24462358  0.83499667     0.11200
H2520       H  0.77755628  0.26158507  0.82771181     0.11200
H2521       H  0.73657116  0.25484227  0.80316585     0.11300
H2522       H  0.69580304  0.23744145  0.81052190     0.10100
C2523       C  0.36005214  0.34641837  0.81146883    -0.03700
C2524       C  0.35928113  0.35077997  0.82042870    -0.09400
C2525       C  0.37196056  0.33231385  0.82609589    -0.17100
C2526       C  0.38547754  0.30915832  0.82290012     0.25100
C2527       C  0.38593526  0.30449253  0.81399159    -0.18700
C2528       C  0.37338805  0.32297397  0.80832133    -0.07700
C2529       C  0.39963232  0.29063611  0.82868437    -0.14100
C2530       C  0.41255916  0.27511884  0.83322050    -0.13800
C2531       C  0.42949745  0.25653502  0.83817804     0.25000
C2532       C  0.44326652  0.23522172  0.83400544    -0.19200
C2533       C  0.46113978  0.21823893  0.83859628    -0.07700
C2534       C  0.46564060  0.22227989  0.84746040    -0.03800
C2535       C  0.45125725  0.24330255  0.85167449    -0.09100
C2536       C  0.43330318  0.26029883  0.84706031    -0.16700
H2537       H  0.34941388  0.36878052  0.82304131     0.11400
H2538       H  0.37152849  0.33630087  0.83296004     0.10700
H2539       H  0.39635295  0.28674739  0.81141014     0.10600
H2540       H  0.37446306  0.31911932  0.80145880     0.11200
H2541       H  0.44061563  0.23205413  0.82714694     0.11200
H2542       H  0.47197702  0.20234267  0.83514975     0.11200
H2543       H  0.45436603  0.24700155  0.85848272     0.11300
H2544       H  0.42283584  0.27670801  0.85038525     0.10100
C2545       C  0.63953248  0.28151352  0.93528591    -0.03700
C2546       C  0.61086234  0.28030577  0.93520298    -0.09400
C2547       C  0.59688089  0.27072827  0.92792871    -0.17100
C2548       C  0.61127860  0.26212626  0.92061912     0.25100
C2549       C  0.63980446  0.26367182  0.92060251    -0.18700
C2550       C  0.65381996  0.27333193  0.92786100    -0.07700
C2551       C  0.59687491  0.25148096  0.91318291    -0.14100
C2552       C  0.58533984  0.24259409  0.90686971    -0.13800
C2553       C  0.57261863  0.23236913  0.89907383     0.25000
C2554       C  0.56249371  0.20555186  0.89867642    -0.19200
C2555       C  0.55177512  0.19526999  0.89093556    -0.07700
C2556       C  0.55110819  0.21165668  0.88346615    -0.03800
C2557       C  0.56066271  0.23875473  0.88399066    -0.09100
C2558       C  0.57129359  0.24899453  0.89172094    -0.16700
H2559       H  0.59923449  0.28663336  0.94078466     0.11400
H2560       H  0.57483190  0.26978480  0.92804192     0.10700
H2561       H  0.65126457  0.25704821  0.91501451     0.10600
H2562       H  0.67587450  0.27347486  0.92775373     0.11200
H2563       H  0.56333396  0.19241764  0.90430312     0.11200
H2564       H  0.54459796  0.17433121  0.89074106     0.11200
H2565       H  0.56040141  0.25191903  0.87836854     0.11300
H2566       H  0.57896960  0.26976657  0.89191217     0.10100
C2567       C  0.47938019  0.89810397  0.85833543    -0.03700
C2568       C  0.46902433  0.91616222  0.85206012    -0.09400
C2569       C  0.47378468  0.94437029  0.85263314    -0.17100
C2570       C  0.48899626  0.95510395  0.85947736     0.25100
C2571       C  0.49938572  0.93724512  0.86577152    -0.18700
C2572       C  0.49459884  0.90895570  0.86521290    -0.07700
C2573       C  0.49399612  0.98435800  0.85994151    -0.14100
C2574       C  0.49794632  0.00887680  0.86001168    -0.13800
C2575       C  0.50277003  0.03821078  0.85984783     0.25000
C2576       C  0.52614553  0.04875414  0.85585859    -0.19200
C2577       C  0.53093096  0.07706245  0.85569856    -0.07700
C2578       C  0.51240224  0.09540361  0.85953023    -0.03800
C2579       C  0.48884966  0.08470878  0.86345951    -0.09100
C2580       C  0.48409649  0.05635980  0.86361758    -0.16700
H2581       H  0.45711214  0.90849190  0.84671030     0.11400
H2582       H  0.46557969  0.95783401  0.84771831     0.10700
H2583       H  0.51118349  0.94517360  0.87111126     0.10600
H2584       H  0.50273677  0.89559720  0.87016267     0.11200
H2585       H  0.54075080  0.03507673  0.85288217     0.11200
H2586       H  0.54922318  0.08459807  0.85260215     0.11200
H2587       H  0.47416957  0.09825196  0.86645091     0.11300
H2588       H  0.46586658  0.04860297  0.86670206     0.10100
C2589       C  0.52348821  0.77664731  0.84349644    -0.03700
C2590       C  0.54257629  0.76020829  0.84787055    -0.09400
C2591       C  0.56079673  0.74363786  0.84326994    -0.17100
C2592       C  0.56026750  0.74333994  0.83424130     0.25100
C2593       C  0.54191795  0.76033423  0.82984077    -0.18700
C2594       C  0.52367019  0.77687562  0.83442680    -0.07700
C2595       C  0.57748768  0.72464835  0.82949747    -0.14100
C2596       C  0.59072204  0.70835192  0.82538751    -0.13800
C2597       C  0.60519176  0.68840433  0.82025422     0.25000
C2598       C  0.60455749  0.69017431  0.81124863    -0.19200
C2599       C  0.61722224  0.67009828  0.80622220    -0.07700
C2600       C  0.63073049  0.64789953  0.81013087    -0.03800
C2601       C  0.63176618  0.64650994  0.81917939    -0.09100
C2602       C  0.61903710  0.66662530  0.82420480    -0.16700
H2603       H  0.54288053  0.75954315  0.85484612     0.11400
H2604       H  0.57485755  0.73058522  0.84676046     0.10700
H2605       H  0.54126299  0.76032007  0.82286080     0.10600
H2606       H  0.50920855  0.78928755  0.83087467     0.11200
H2607       H  0.59384468  0.70682722  0.80810326     0.11200
H2608       H  0.61591485  0.67162864  0.79927034     0.11200
H2609       H  0.64180118  0.62952755  0.82236532     0.11300
H2610       H  0.61958757  0.66492669  0.83116505     0.10100
C2611       C  0.34835063  0.71703570  0.93297697    -0.03700
C2612       C  0.34711094  0.69936698  0.92582390    -0.09400
C2613       C  0.35956635  0.70661228  0.91798542    -0.17100
C2614       C  0.37335251  0.73164184  0.91718795     0.25100
C2615       C  0.37483838  0.74913158  0.92429211    -0.18700
C2616       C  0.36246654  0.74197904  0.93208804    -0.07700
C2617       C  0.38554582  0.74009596  0.90911269    -0.14100
C2618       C  0.39598636  0.74934077  0.90266346    -0.13800
C2619       C  0.40849545  0.76180499  0.89517148     0.25000
C2620       C  0.39736124  0.78565961  0.89157252    -0.19200
C2621       C  0.40918450  0.79756429  0.88425284    -0.07700
C2622       C  0.43239802  0.78581818  0.88042561    -0.03800
C2623       C  0.44380725  0.76220609  0.88417483    -0.09100
C2624       C  0.43191593  0.75028879  0.89148868    -0.16700
H2625       H  0.33669052  0.67991159  0.92629038     0.11400
H2626       H  0.35828018  0.69280456  0.91254708     0.10700
H2627       H  0.38528530  0.76859190  0.92377455     0.10600
H2628       H  0.36339570  0.75643817  0.93735299     0.11200
H2629       H  0.37936919  0.79492635  0.89437591     0.11200
H2630       H  0.39991871  0.81573063  0.88151237     0.11200
H2631       H  0.46161745  0.75265412  0.88135900     0.11300
H2632       H  0.44085714  0.73194352  0.89422343     0.10100
C2633       C  0.23026641  0.72403660  0.81387337    -0.03700
C2634       C  0.24261951  0.74913925  0.81162906    -0.09400
C2635       C  0.26575080  0.75841749  0.81598454    -0.17100
C2636       C  0.27687851  0.74298950  0.82270929     0.25100
C2637       C  0.26488878  0.71813251  0.82503475    -0.18700
C2638       C  0.24180936  0.70873856  0.82067273    -0.07700
C2639       C  0.30043464  0.75279722  0.82727375    -0.14100
C2640       C  0.32023924  0.76093754  0.83107846    -0.13800
C2641       C  0.34416348  0.77028532  0.83554753     0.25000
C2642       C  0.34741161  0.79809653  0.83744155    -0.19200
C2643       C  0.37088989  0.80716318  0.84167128    -0.07700
C2644       C  0.39138937  0.78848198  0.84404196    -0.03800
C2645       C  0.38788569  0.76057275  0.84216114    -0.09100
C2646       C  0.36440227  0.75155135  0.83793794    -0.16700
H2647       H  0.23424254  0.76213923  0.80664923     0.11400
H2648       H  0.27478491  0.77780581  0.81415994     0.10700
H2649       H  0.27333552  0.70600872  0.83024719     0.10600
H2650       H  0.23333950  0.68945851  0.82269916     0.11200
H2651       H  0.33185428  0.81276824  0.83562676     0.11200
H2652       H  0.37303457  0.82876156  0.84306908     0.11200
H2653       H  0.40330725  0.74573161  0.84394247     0.11300
H2654       H  0.36207325  0.72997971  0.83651149     0.10100
C2655       C  0.16252060  0.72391076  0.78923462    -0.03700
C2656       C  0.18048015  0.71771627  0.78240048    -0.09400
C2657       C  0.17545762  0.72713142  0.77402918    -0.17100
C2658       C  0.15240881  0.74304867  0.77230064     0.25100
C2659       C  0.13439727  0.74941923  0.77899044    -0.18700
C2660       C  0.13929923  0.73995722  0.78737061    -0.07700
C2661       C  0.14723555  0.75310592  0.76370268    -0.14100
C2662       C  0.14201581  0.76236188  0.75666783    -0.13800
C2663       C  0.13444393  0.77469446  0.74855415     0.25000
C2664       C  0.13882443  0.76092339  0.74075663    -0.19200
C2665       C  0.13051331  0.77279330  0.73294843    -0.07700
C2666       C  0.11773562  0.79857981  0.73286893    -0.03800
C2667       C  0.11375316  0.81235474  0.74071907    -0.09100
C2668       C  0.12201981  0.80048178  0.74849256    -0.16700
H2669       H  0.19856375  0.70553199  0.78357262     0.11400
H2670       H  0.18961531  0.72206512  0.76891719     0.10700
H2671       H  0.11649620  0.76180414  0.77773190     0.10600
H2672       H  0.12474898  0.74557730  0.79224938     0.11200
H2673       H  0.14841590  0.74094228  0.74071855     0.11200
H2674       H  0.13384087  0.76173541  0.72699829     0.11200
H2675       H  0.10395810  0.83222301  0.74086632     0.11300
H2676       H  0.11848671  0.81133714  0.75447320     0.10100
C2677       C  0.06056656  0.79013050  0.87371467    -0.03700
C2678       C  0.04571962  0.77028795  0.86913539    -0.09400
C2679       C  0.05648846  0.75847223  0.86165757    -0.17100
C2680       C  0.08216465  0.76642851  0.85862667     0.25100
C2681       C  0.09689393  0.78647076  0.86308340    -0.18700
C2682       C  0.08622192  0.79819924  0.87059121    -0.07700
C2683       C  0.09352998  0.75400235  0.85098771    -0.14100
C2684       C  0.10374903  0.74427294  0.84459946    -0.13800
C2685       C  0.11692337  0.73387245  0.83695026     0.25000
C2686       C  0.14530705  0.73103636  0.83674387    -0.19200
C2687       C  0.15837910  0.72247971  0.82919874    -0.07700
C2688       C  0.14324797  0.71668215  0.82172207    -0.03800
C2689       C  0.11468019  0.71914518  0.82202069    -0.09100
C2690       C  0.10162550  0.72764197  0.82958886    -0.16700
H2691       H  0.02603050  0.76346821  0.87143747     0.11400
H2692       H  0.04488910  0.74297329  0.85828515     0.10700
H2693       H  0.11676800  0.79283831  0.86080292     0.10600
H2694       H  0.09816268  0.81332235  0.87400742     0.11200
H2695       H  0.15740801  0.73595622  0.84237175     0.11200
H2696       H  0.18040765  0.72134303  0.82914549     0.11200
H2697       H  0.10245049  0.71463660  0.81639289     0.11300
H2698       H  0.07964893  0.72974133  0.82965676     0.10100
C2699       C  0.18830567  0.64224122  0.80729027    -0.03700
C2700       C  0.21070572  0.63467445  0.81242422    -0.09400
C2701       C  0.22004145  0.60758475  0.81254747    -0.17100
C2702       C  0.20702871  0.58760180  0.80757457     0.25100
C2703       C  0.18412830  0.59471794  0.80268202    -0.18700
C2704       C  0.17476865  0.62177942  0.80255861    -0.07700
C2705       C  0.21839884  0.56041850  0.80693349    -0.14100
C2706       C  0.22932845  0.53858383  0.80572931    -0.13800
C2707       C  0.24457616  0.51431101  0.80351637     0.25000
C2708       C  0.24203532  0.49003958  0.80829397    -0.19200
C2709       C  0.25828248  0.46723112  0.80629211    -0.07700
C2710       C  0.27727799  0.46859346  0.79951358    -0.03800
C2711       C  0.27908009  0.49280773  0.79463465    -0.09100
C2712       C  0.26287477  0.51542227  0.79661989    -0.16700
H2713       H  0.22190766  0.64982238  0.81601148     0.11400
H2714       H  0.23794855  0.60242801  0.81630206     0.10700
H2715       H  0.17391441  0.57949206  0.79877955     0.10600
H2716       H  0.15724985  0.62677467  0.79861639     0.11200
H2717       H  0.22788906  0.48890016  0.81363995     0.11200
H2718       H  0.25647108  0.44883918  0.81015348     0.11200
H2719       H  0.29342428  0.49447677  0.78935706     0.11300
H2720       H  0.26499299  0.53400624  0.79285650     0.10100
loop_ 
_geom_bond_atom_site_label_1 
_geom_bond_atom_site_label_2 
_geom_bond_distance 
_geom_bond_site_symmetry_2 
_ccdc_geom_bond_type 
C1            C2   1.545       .  S
C1            C7   1.532       .  S
C1            C5   1.538       .  S
C1         C2655   1.532       .  S
C2            H9   1.081       .  S
C2            C3   1.368       .  D
C3            C4   1.541       .  S
C3         C2688   1.490       .  S
C4            C8   1.545       .  S
C4            C6   1.544       .  S
C4           H10   1.106       .  S
C5           H11   1.084       .  S
C5            C6   1.371       .  D
C6         C2633   1.499       .  S
C7           H12   1.086       .  S
C7            C8   1.366       .  D
C8         C2699   1.492       .  S
In13         O15   2.255       .  S
In13         O16   2.264       .  S
In13         O24   2.273       .  S
In13         O18   2.252       .  S
In13         O20   2.248       .  S
In13         O21   2.262       .  S
In13         O22   2.247       .  S
In13         O25   2.252       .  S
C14          O20   1.261       .  A
C14          O22   1.260       .  A
C14        C2644   1.477       .  S
O15          C23   1.260       .  A
O16          C23   1.262       .  A
C17          O24   1.262       .  A
C17          O18   1.259       .  A
C17        C2567   1.487       .  S
C19          O21   1.262       .  A
C19          O25   1.260       .  A
C19        C2622   1.484       .  S
C23        C2589   1.484       .  S
In26         O28   2.252       .  S
In26         O29   2.276       .  S
In26         O37   2.278       .  S
In26         O31   2.264       .  S
In26         O33   2.261       .  S
In26         O34   2.258       .  S
In26         O35   2.251       .  S
In26         O38   2.279       .  S
C27          O33   1.262       .  A
C27          O35   1.259       .  A
C27        C2501   1.481       .  S
O28          C36   1.260       .  A
O29          C36   1.262       .  A
C30          O37   1.262       .  A
C30          O31   1.260       .  A
C30        C2578   1.491       .  S
C32          O34   1.259       .  A
C32          O38   1.262       .  A
C32        C2556   1.488       .  S
C36        C2534   1.487       .  S
C39          C40   1.547       .  S
C39          C45   1.536       .  S
C39          C43   1.543       .  S
C39        C2446   1.538       .  S
C40          H47   1.081       .  S
C40          C41   1.370       .  D
C41          C42   1.540       .  S
C41        C2468   1.492       .  S
C42          C46   1.542       .  S
C42          C44   1.539       .  S
C42          H48   1.109       .  S
C43          H49   1.086       .  S
C43          C44   1.369       .  D
C44        C2512   1.488       .  S
C45          H50   1.086       .  S
C45          C46   1.366       .  D
C46        C2490   1.490       .  S
In51         O53   2.252       .  S
In51         O54   2.270       .  S
In51         O62   2.263       .  S
In51         O56   2.236       .  S
In51         O58   2.249       .  S
In51         O59   2.270       .  S
In51         O60   2.245       .  S
In51         O63   2.235       .  S
C52          O58   1.261       .  A
C52          O60   1.261       .  A
C52        C2380   1.477       .  S
O53          C61   1.259       .  A
O54          C61   1.262       .  A
C55          O62   1.263       .  A
C55          O56   1.260       .  A
C55        C2666   1.480       .  S
C57          O59   1.264       .  A
C57          O63   1.259       .  A
C57        C2413   1.482       .  S
C61        C2402   1.485       .  S
In64         O66   2.251       .  S
In64         O67   2.262       .  S
In64         O75   2.265       .  S
In64         O69   2.249       .  S
In64         O71   2.248       .  S
In64         O72   2.272       .  S
In64         O73   2.245       .  S
In64         O76   2.239       .  S
C65          O71   1.262       .  A
C65          O73   1.260       .  A
C65        C2369   1.477       .  S
O66          C74   1.260       .  A
O67          C74   1.262       .  A
C68          O75   1.263       .  A
C68          O69   1.261       .  A
C68        C2435   1.485       .  S
C70          O72   1.263       .  A
C70          O76   1.259       .  A
C70        C2358   1.484       .  S
C74        C2336   1.484       .  S
C77          C78   1.542       .  S
C77          C83   1.534       .  S
C77          C81   1.538       .  S
C77        C2281   1.535       .  S
C78          H85   1.080       .  S
C78          C79   1.370       .  D
C79          C80   1.545       .  S
C79        C2611   1.497       .  S
C80          C84   1.545       .  S
C80          C82   1.547       .  S
C80          H86   1.105       .  S
C81          H87   1.083       .  S
C81          C82   1.371       .  D
C82        C2270   1.503       .  S
C83          H88   1.086       .  S
C83          C84   1.366       .  D
C84        C2314   1.490       .  S
In89         O91   2.260       .  S
In89         O92   2.253       .  S
In89        O100   2.279       .  S
In89         O94   2.242       .  S
In89         O96   2.250       .  S
In89         O97   2.250       .  S
In89         O98   2.252       .  S
In89        O101   2.260       .  S
C90          O96   1.259       .  A
C90          O98   1.260       .  A
C90        C2259   1.476       .  S
O91          C99   1.260   1_455  A
O92          C99   1.258   1_455  A
C93         O100   1.262       .  A
C93          O94   1.258       .  A
C93        C2215   1.484       .  S
C95          O97   1.259       .  A
C95         O101   1.261       .  A
C95        C2677   1.481       .  S
C99        C2248   1.479       .  S
C102        C103   1.536       .  S
C102        C108   1.538       .  S
C102        C106   1.538       .  S
C102       C2182   1.533       .  S
C103        H110   1.086       .  S
C103        C104   1.368       .  D
C104        C105   1.545       .  S
C104       C2545   1.493       .  S
C105        C109   1.549       .  S
C105        C107   1.545       .  S
C105        H111   1.107       .  S
C106        H112   1.085       .  S
C106        C107   1.368       .  D
C107       C2149   1.496       .  S
C108        H113   1.080       .  S
C108        C109   1.368       .  D
C109       C2204   1.496       .  S
In114       O116   2.246       .  S
In114       O117   2.274       .  S
In114       O125   2.270       .  S
In114       O119   2.256       .  S
In114       O121   2.259       .  S
In114       O122   2.257       .  S
In114       O123   2.245       .  S
In114       O126   2.261       .  S
C115        O121   1.262       .  A
C115        O123   1.260       .  A
C115       C2160   1.480       .  S
O116        C124   1.259       .  A
O117        C124   1.262       .  A
C118        O125   1.262       .  A
C118        O119   1.259       .  A
C118       C2226   1.486       .  S
C120        O122   1.261       .  A
C120        O126   1.261       .  A
C120       C2457   1.484       .  S
C124       C2127   1.485   1_655  S
In127       O129   2.252       .  S
In127       O130   2.270       .  S
In127       O138   2.264       .  S
In127       O132   2.236       .  S
In127       O134   2.245       .  S
In127       O135   2.275       .  S
In127       O136   2.252       .  S
In127       O139   2.239       .  S
C128        O134   1.259       .  A
C128        O136   1.261       .  A
C128       C2061   1.477       .  S
O129        C137   1.259       .  A
O130        C137   1.262       .  A
C131        O138   1.263       .  A
C131        O132   1.259       .  A
C131       C2292   1.480       .  S
C133        O135   1.263       .  A
C133        O139   1.259       .  A
C133       C2105   1.484       .  S
C137       C2094   1.485       .  S
In140       O142   2.240       .  S
In140       O143   2.260       .  S
In140       O151   2.264       .  S
In140       O145   2.237       .  S
In140       O147   2.242       .  S
In140       O148   2.268       .  S
In140       O149   2.247       .  S
In140       O152   2.233       .  S
C141        O147   1.261       .  A
C141        O149   1.260       .  A
C141       C2072   1.476       .  S
O142        C150   1.260       .  A
O143        C150   1.263       .  A
C144        O151   1.263       .  A
C144        O145   1.260       .  A
C144       C2171   1.481       .  S
C146        O148   1.264       .  A
C146        O152   1.259       .  A
C146       C2039   1.481       .  S
C150       C2028   1.480       .  S
C153        C154   1.530       .  S
C153        C159   1.542       .  S
C153        C157   1.542       .  S
C153       C1951   1.534       .  S
C154        H161   1.086       .  S
C154        C155   1.366       .  D
C155        C156   1.543       .  S
C155       C1995   1.488       .  S
C156        C160   1.547       .  S
C156        C158   1.546       .  S
C156        H162   1.107       .  S
C157        H163   1.084       .  S
C157        C158   1.373       .  D
C158       C1929   1.502       .  S
C159        H164   1.081       .  S
C159        C160   1.366       .  D
C160       C1973   1.495       .  S
In165       O167   2.256       .  S
In165       O168   2.268       .  S
In165       O176   2.285       .  S
In165       O170   2.261       .  S
In165       O172   2.251       .  S
In165       O173   2.275       .  S
In165       O174   2.252       .  S
In165       O177   2.262       .  S
C166        O172   1.262       .  A
C166        O174   1.261       .  A
C166       C1940   1.481       .  S
O167        C175   1.259       .  A
O168        C175   1.261       .  A
C169        O176   1.262       .  A
C169        O170   1.259       .  A
C169       C1874   1.492       .  S
C171        O173   1.262       .  A
C171        O177   1.260       .  A
C171       C1885   1.489       .  S
C175       C1907   1.485       .  S
In178       O180   2.247       .  S
In178       O181   2.267       .  S
In178       O189   2.286       .  S
In178       O183   2.260       .  S
In178       O185   2.255       .  S
In178       O186   2.265       .  S
In178       O187   2.251       .  S
In178       O190   2.258       .  S
C179        O185   1.261       .  A
C179        O187   1.260       .  A
C179       C1797   1.479       .  S
O180        C188   1.259       .  A
O181        C188   1.262       .  A
C182        O189   1.261       .  A
C182        O183   1.258       .  A
C182       C1863   1.491       .  S
C184        O186   1.261       .  A
C184        O190   1.261       .  A
C184       C1819   1.485       .  S
C188       C1852   1.481       .  S
C191        C192   1.539       .  S
C191        C197   1.534       .  S
C191        C195   1.533       .  S
C191       C1731   1.530       .  S
C192        H199   1.078       .  S
C192        C193   1.371       .  D
C193        C194   1.551       .  S
C193       C1775   1.501       .  S
C194        C198   1.546       .  S
C194        C196   1.544       .  S
C194        H200   1.108       .  S
C195        H201   1.086       .  S
C195        C196   1.365       .  D
C196       C1808   1.487       .  S
C197        H202   1.086       .  S
C197        C198   1.367       .  D
C198       C1753   1.491       .  S
In203       O205   2.234       .  S
In203       O206   2.276       .  S
In203       O214   2.263       .  S
In203       O208   2.237       .  S
In203       O210   2.233       .  S
In203       O211   2.269       .  S
In203       O212   2.244       .  S
In203       O215   2.241       .  S
C204        O210   1.262       .  A
C204        O212   1.262       .  A
C204       C1676   1.474       .  S
O205        C213   1.259       .  A
O206        C213   1.265       .  A
C207        O214   1.263       .  A
C207        O208   1.259       .  A
C207       C1962   1.480       .  S
C209        O211   1.264       .  A
C209        O215   1.259       .  A
C209       C1687   1.483       .  S
C213       C1709   1.484       .  S
In216       O218   2.234       .  S
In216       O219   2.271       .  S
In216       O227   2.259       .  S
In216       O221   2.239       .  S
In216       O223   2.240       .  S
In216       O224   2.265       .  S
In216       O225   2.237       .  S
In216       O228   2.255       .  S
C217        O223   1.261       .  A
C217        O225   1.261       .  A
C217       C1665   1.473       .  S
O218        C226   1.259       .  A
O219        C226   1.264       .  A
C220        O227   1.263       .  A
C220        O221   1.259       .  A
C220       C1742   1.479       .  S
C222        O224   1.262       .  A
C222        O228   1.259       .  A
C222       C1621   1.486       .  S
C226       C1643   1.481       .  S
C229        C230   1.531       .  S
C229        C235   1.545       .  S
C229        C233   1.541       .  S
C229       C1599   1.539       .  S
C230        H237   1.085       .  S
C230        C231   1.369       .  D
C231        C232   1.550       .  S
C231       C2347   1.503       .  S
C232        C236   1.544       .  S
C232        C234   1.545       .  S
C232        H238   1.105       .  S
C233        H239   1.084       .  S
C233        C234   1.373       .  D
C234       C1588   1.501       .  S
C235        H240   1.081       .  S
C235        C236   1.369       .  D
C236       C1918   1.497       .  S
In241       O243   2.257       .  S
In241       O244   2.262       .  S
In241       O252   2.277       .  S
In241       O246   2.265       .  S
In241       O248   2.262       .  S
In241       O249   2.274   1_545  S
In241       O250   2.243       .  S
In241       O253   2.249       .  S
C242        O248   1.262       .  A
C242        O250   1.260       .  A
C242       C1577   1.481       .  S
O243        C251   1.261       .  A
O244        C251   1.262       .  A
C245        O252   1.260       .  A
C245        O246   1.258       .  A
C245       C1566   1.488       .  S
C247        O249   1.262       .  A
C247        O253   1.259   1_565  A
C247       C2391   1.485       .  S
C251       C1984   1.485       .  S
C254        C255   1.537       .  S
C254        C260   1.544       .  S
C254        C258   1.543       .  S
C254       C1533   1.533       .  S
C255        H262   1.086       .  S
C255        C256   1.367       .  D
C256        C257   1.539       .  S
C256       C2424   1.489       .  S
C257        C261   1.535       .  S
C257        C259   1.537       .  S
C257        H263   1.108       .  S
C258        H264   1.086       .  S
C258        C259   1.369       .  D
C259       C1511   1.487       .  S
C260        H265   1.080       .  S
C260        C261   1.366       .  D
C261       C1841   1.485       .  S
In266       O268   2.261       .  S
In266       O269   2.250       .  S
In266       O277   2.276       .  S
In266       O271   2.252       .  S
In266       O273   2.258       .  S
In266       O274   2.258       .  S
In266       O275   2.244       .  S
In266       O278   2.257       .  S
C267        O273   1.260       .  A
C267        O275   1.258       .  A
C267       C1522   1.476       .  S
O268        C276   1.262       .  A
O269        C276   1.261       .  A
C270        O277   1.261       .  A
C270        O271   1.258       .  A
C270       C1555   1.486       .  S
C272        O274   1.262   1_545  A
C272        O278   1.261   1_545  A
C272       C2325   1.483       .  S
C276       C1764   1.483       .  S
In279       O281   2.228       .  S
In279       O282   2.274       .  S
In279       O290   2.272       .  S
In279       O284   2.248       .  S
In279       O286   2.254       .  S
In279       O287   2.266       .  S
In279       O288   2.245       .  S
In279       O291   2.254       .  S
C280        O286   1.262       .  A
C280        O288   1.260       .  A
C280       C1489   1.478       .  S
O281        C289   1.259       .  A
O282        C289   1.265       .  A
C283        O290   1.264       .  A
C283        O284   1.261       .  A
C283       C1610   1.487       .  S
C285        O287   1.262       .  A
C285        O291   1.260       .  A
C285       C2523   1.485       .  S
C289       C2710   1.481       .  S
In292       O294   2.244       .  S
In292       O295   2.273       .  S
In292       O303   2.261       .  S
In292       O297   2.238       .  S
In292       O299   2.251       .  S
In292       O300   2.263       .  S
In292       O301   2.241       .  S
In292       O304   2.245       .  S
C293        O299   1.261       .  A
C293        O301   1.260       .  A
C293       C1500   1.477       .  S
O294        C302   1.260       .  A
O295        C302   1.264       .  A
C296        O303   1.264       .  A
C296        O297   1.261       .  A
C296       C1544   1.481       .  S
C298        O300   1.262       .  A
C298        O304   1.259       .  A
C298       C2600   1.482       .  S
C302       C2479   1.486       .  S
In305       O307   2.256       .  S
In305       O308   2.263       .  S
In305       O316   2.283       .  S
In305       O310   2.247       .  S
In305       O312   2.249       .  S
In305       O313   2.262   1_545  S
In305       O314   2.249       .  S
In305       O317   2.259       .  S
C306        O312   1.260       .  A
C306        O314   1.260       .  A
C306       C1423   1.477       .  S
O307        C315   1.259       .  A
O308        C315   1.259       .  A
C309        O316   1.263       .  A
C309        O310   1.258       .  A
C309       C1445   1.487       .  S
C311        O313   1.261       .  A
C311        O317   1.261   1_565  A
C311       C2083   1.485       .  S
C315       C1478   1.482       .  S
C318        C319   1.532       .  S
C318        C324   1.535       .  S
C318        C322   1.545       .  S
C318       C1379   1.535       .  S
C319        H326   1.085       .  S
C319        C320   1.368       .  D
C320        C321   1.550       .  S
C320       C2050   1.498       .  S
C321        C325   1.544       .  S
C321        C323   1.543       .  S
C321        H327   1.107       .  S
C322        H328   1.080       .  S
C322        C323   1.369       .  D
C323       C1434   1.493       .  S
C324        H329   1.086       .  S
C324        C325   1.368       .  D
C325       C1412   1.492       .  S
In330       O332   2.248       .  S
In330       O333   2.265       .  S
In330       O341   2.277       .  S
In330       O335   2.256       .  S
In330       O337   2.249       .  S
In330       O338   2.264       .  S
In330       O339   2.249       .  S
In330       O342   2.252       .  S
C331        O337   1.261       .  A
C331        O339   1.260       .  A
C331       C1335   1.478       .  S
O332        C340   1.260       .  A
O333        C340   1.261       .  A
C334        O341   1.261       .  A
C334        O335   1.259       .  A
C334       C1456   1.488       .  S
C336        O338   1.261       .  A
C336        O342   1.259       .  A
C336       C2017   1.483   1_565  S
C340       C1357   1.483       .  S
C343        C344   1.533       .  S
C343        C349   1.544       .  S
C343        C347   1.541       .  S
C343       C1291   1.537       .  S
C344        H351   1.086       .  S
C344        C345   1.367       .  D
C345        C346   1.547       .  S
C345       C2116   1.494       .  S
C346        C350   1.544       .  S
C346        C348   1.542       .  S
C346        H352   1.108       .  S
C347        H353   1.085       .  S
C347        C348   1.371       .  D
C348       C1346   1.497       .  S
C349        H354   1.081       .  S
C349        C350   1.368       .  D
C350       C1324   1.492       .  S
In355       O357   2.236       .  S
In355       O358   2.272       .  S
In355       O366   2.269       .  S
In355       O360   2.240       .  S
In355       O362   2.244       .  S
In355       O363   2.268       .  S
In355       O364   2.251       .  S
In355       O367   2.251       .  S
C356        O362   1.260       .  A
C356        O364   1.261       .  A
C356       C1269   1.477       .  S
O357        C365   1.259       .  A
O358        C365   1.263       .  A
C359        O366   1.263       .  A
C359        O360   1.260       .  A
C359       C1390   1.483       .  S
C361        O363   1.262       .  A
C361        O367   1.259       .  A
C361       C2138   1.485       .  S
C365       C2303   1.482       .  S
In368       O370   2.237       .  S
In368       O371   2.258       .  S
In368       O379   2.264       .  S
In368       O373   2.244       .  S
In368       O375   2.252       .  S
In368       O376   2.256       .  S
In368       O377   2.239       .  S
In368       O380   2.251       .  S
C369        O375   1.261       .  A
C369        O377   1.260       .  A
C369       C1280   1.475       .  S
O370        C378   1.260       .  A
O371        C378   1.262       .  A
C372        O379   1.263       .  A
C372        O373   1.261       .  A
C372       C1302   1.483       .  S
C374        O376   1.259       .  A
C374        O380   1.260       .  A
C374       C2237   1.479       .  S
C378       C2193   1.479       .  S
C381        C382   1.535       .  S
C381        C387   1.542       .  S
C381        C385   1.539       .  S
C381       C1225   1.532       .  S
C382        H389   1.086       .  S
C382        C383   1.370       .  D
C383        C384   1.544       .  S
C383       C1258   1.495       .  S
C384        C388   1.544       .  S
C384        C386   1.538       .  S
C384        H390   1.108       .  S
C385        H391   1.086       .  S
C385        C386   1.365       .  D
C386       C1214   1.482       .  S
C387        H392   1.080       .  S
C387        C388   1.370       .  D
C388       C1467   1.494       .  S
In393       O395   2.260       .  S
In393       O396   2.267       .  S
In393       O404   2.276       .  S
In393       O398   2.254       .  S
In393       O400   2.247       .  S
In393       O401   2.263       .  S
In393       O402   2.251       .  S
In393       O405   2.259       .  S
C394        O400   1.261       .  A
C394        O402   1.261       .  A
C394       C1203   1.478       .  S
O395        C403   1.260       .  A
O396        C403   1.261       .  A
C397        O404   1.260       .  A
C397        O398   1.257       .  A
C397       C1159   1.484       .  S
C399        O401   1.261       .  A
C399        O405   1.260       .  A
C399       C1192   1.485       .  S
C403       C1401   1.486       .  S
In406       O408   2.256       .  S
In406       O409   2.254       .  S
In406       O417   2.278       .  S
In406       O411   2.245       .  S
In406       O413   2.252       .  S
In406       O414   2.264       .  S
In406       O415   2.248       .  S
In406       O418   2.260       .  S
C407        O413   1.260       .  A
C407        O415   1.259       .  A
C407       C1126   1.476       .  S
O408        C416   1.261       .  A
O409        C416   1.262       .  A
C410        O417   1.262       .  A
C410        O411   1.258       .  A
C410       C1170   1.484       .  S
C412        O414   1.260       .  A
C412        O418   1.260       .  A
C412       C1148   1.485       .  S
C416       C1313   1.483       .  S
C419        C420   1.533       .  S
C419        C425   1.540       .  S
C419        C423   1.537       .  S
C419       C1082   1.533       .  S
C420        H427   1.086       .  S
C420        C421   1.368       .  D
C421        C422   1.548       .  S
C421       C1093   1.498       .  S
C422        C426   1.548       .  S
C422        C424   1.540       .  S
C422        H428   1.108       .  S
C423        H429   1.086       .  S
C423        C424   1.367       .  D
C424       C1115   1.484       .  S
C425        H430   1.080       .  S
C425        C426   1.370       .  D
C426       C1368   1.498       .  S
In431       O433   2.226       .  S
In431       O434   2.285       .  S
In431       O442   2.260       .  S
In431       O436   2.240       .  S
In431       O438   2.239       .  S
In431       O439   2.275       .  S
In431       O440   2.242       .  S
In431       O443   2.240       .  S
C432        O438   1.261       .  A
C432        O440   1.262       .  A
C432       C1005   1.474       .  S
O433        C441   1.258       .  A
O434        C441   1.265       .  A
C435        O442   1.263       .  A
C435        O436   1.259       .  A
C435       C1236   1.479       .  S
C437        O439   1.264       .  A
C437        O443   1.259       .  A
C437       C1038   1.485       .  S
C441       C1049   1.485       .  S
In444       O446   2.232       .  S
In444       O447   2.282       .  S
In444       O455   2.265       .  S
In444       O449   2.239       .  S
In444       O451   2.246       .  S
In444       O452   2.274       .  S
In444       O453   2.245       .  S
In444       O456   2.248       .  S
C445        O451   1.261       .  A
C445        O453   1.261       .  A
C445       C1016   1.476       .  S
O446        C454   1.259       .  A
O447        C454   1.264       .  A
C448        O455   1.263       .  A
C448        O449   1.259       .  A
C448       C1071   1.481       .  S
C450        O452   1.262       .  A
C450        O456   1.258       .  A
C450        C972   1.485       .  S
C454        C983   1.484       .  S
In457       O459   2.250       .  S
In457       O460   2.263       .  S
In457       O468   2.280       .  S
In457       O462   2.248       .  S
In457       O464   2.257       .  S
In457       O465   2.260       .  S
In457       O466   2.247       .  S
In457       O469   2.253       .  S
C458        O464   1.261       .  A
C458        O466   1.260       .  A
C458        C895   1.479       .  S
O459        C467   1.260       .  A
O460        C467   1.262       .  A
C461        O468   1.262       .  A
C461        O462   1.259       .  A
C461        C928   1.487       .  S
C463        O465   1.260       .  A
C463        O469   1.260       .  A
C463        C939   1.482       .  S
C467       C1027   1.483   1_655  S
C470        C471   1.546       .  S
C470        C476   1.533       .  S
C470        C474   1.542       .  S
C470        C862   1.537       .  S
C471        H478   1.081       .  S
C471        C472   1.371       .  D
C472        C473   1.544       .  S
C472        C873   1.498       .  S
C473        C477   1.547       .  S
C473        C475   1.542       .  S
C473        H479   1.106       .  S
C474        H480   1.085       .  S
C474        C475   1.372       .  D
C475        C906   1.499       .  S
C476        H481   1.086       .  S
C476        C477   1.366       .  D
C477        C994   1.495       .  S
In482       O484   2.244       .  S
In482       O485   2.264   1_455  S
In482       O493   2.276       .  S
In482       O487   2.257       .  S
In482       O489   2.260       .  S
In482       O490   2.262       .  S
In482       O491   2.237       .  S
In482       O494   2.255       .  S
C483        O489   1.262       .  A
C483        O491   1.259       .  A
C483        C818   1.477       .  S
O484        C492   1.260   1_455  A
O485        C492   1.263       .  A
C486        O493   1.261       .  A
C486        O487   1.258       .  A
C486        C917   1.487       .  S
C488        O490   1.261       .  A
C488        O494   1.261       .  A
C488        C840   1.483       .  S
C492        C961   1.483       .  S
C495        C496   1.545       .  S
C495        C501   1.536       .  S
C495        C499   1.541       .  S
C495        C774   1.538       .  S
C496        H503   1.081       .  S
C496        C497   1.368       .  D
C497        C498   1.544       .  S
C497        C796   1.495       .  S
C498        C502   1.543       .  S
C498        C500   1.545       .  S
C498        H504   1.104       .  S
C499        H505   1.083       .  S
C499        C500   1.373       .  D
C500        C807   1.503       .  S
C501        H506   1.086       .  S
C501        C502   1.367       .  D
C502       C1060   1.494       .  S
In507       O509   2.248       .  S
In507       O510   2.277       .  S
In507       O518   2.269       .  S
In507       O512   2.252       .  S
In507       O514   2.257       .  S
In507       O515   2.273       .  S
In507       O516   2.249       .  S
In507       O519   2.241       .  S
C508        O514   1.261       .  A
C508        O516   1.260       .  A
C508        C741   1.479       .  S
O509        C517   1.259       .  A
O510        C517   1.263       .  A
C511        O518   1.263       .  A
C511        O512   1.261       .  A
C511        C763   1.487       .  S
C513        O515   1.265       .  A
C513        O519   1.261       .  A
C513       C1104   1.486       .  S
C517       C1181   1.485       .  S
In520       O522   2.238       .  S
In520       O523   2.272       .  S
In520       O531   2.273       .  S
In520       O525   2.236       .  S
In520       O527   2.237       .  S
In520       O528   2.279       .  S
In520       O529   2.254       .  S
In520       O532   2.244       .  S
C521        O527   1.260       .  A
C521        O529   1.262       .  A
C521        C752   1.477       .  S
O522        C530   1.259       .  A
O523        C530   1.264       .  A
C524        O531   1.263       .  A
C524        O525   1.259       .  A
C524        C851   1.483       .  S
C526        O528   1.264       .  A
C526        O532   1.259       .  A
C526       C1247   1.486       .  S
C530       C1137   1.484       .  S
In533       O535   2.262       .  S
In533       O536   2.271       .  S
In533       O544   2.286       .  S
In533       O538   2.257       .  S
In533       O540   2.252       .  S
In533       O541   2.289       .  S
In533       O542   2.261       .  S
In533       O545   2.244       .  S
C534        O540   1.261       .  A
C534        O542   1.262       .  A
C534        C697   1.482       .  S
O535        C543   1.260       .  A
O536        C543   1.261       .  A
C537        O544   1.261       .  A
C537        O538   1.258       .  A
C537        C730   1.489       .  S
C539        O541   1.264       .  A
C539        O545   1.257       .  A
C539        C884   1.487       .  S
C543       C1698   1.486       .  S
C546        C547   1.542       .  S
C546        C552   1.532       .  S
C546        C550   1.540       .  S
C546        C675   1.532       .  S
C547        H554   1.081       .  S
C547        C548   1.369       .  D
C548        C549   1.542       .  S
C548        C950   1.490       .  S
C549        C553   1.548       .  S
C549        C551   1.539       .  S
C549        H555   1.108       .  S
C550        H556   1.086       .  S
C550        C551   1.366       .  D
C551        C708   1.484       .  S
C552        H557   1.085       .  S
C552        C553   1.369       .  D
C553       C1654   1.500       .  S
C558        C559   1.537       .  S
C558        C564   1.534       .  S
C558        C562   1.542       .  S
C558        C653   1.532       .  S
C559        H566   1.081       .  S
C559        C560   1.364       .  D
C560        C561   1.545       .  S
C560        C829   1.490       .  S
C561        C565   1.545       .  S
C561        C563   1.547       .  S
C561        H567   1.105       .  S
C562        H568   1.084       .  S
C562        C563   1.375       .  D
C563        C631   1.504       .  S
C564        H569   1.086       .  S
C564        C565   1.366       .  D
C565       C1720   1.493       .  S
In570       O572   2.261       .  S
In570       O573   2.279       .  S
In570       O581   2.289       .  S
In570       O575   2.244       .  S
In570       O577   2.248       .  S
In570       O578   2.279       .  S
In570       O579   2.250       .  S
In570       O582   2.251       .  S
C571        O577   1.261       .  A
C571        O579   1.262       .  A
C571        C642   1.479       .  S
O572        C580   1.260       .  A
O573        C580   1.262       .  A
C574        O581   1.263       .  A
C574        O575   1.257       .  A
C574        C719   1.489       .  S
C576        O578   1.263       .  A
C576        O582   1.258       .  A
C576        C785   1.487       .  S
C580       C1632   1.490       .  S
In583       O585   2.253       .  S
In583       O586   2.269       .  S
In583       O594   2.268       .  S
In583       O588   2.237       .  S
In583       O590   2.240       .  S
In583       O591   2.277       .  S
In583       O592   2.249       .  S
In583       O595   2.235       .  S
C584        O590   1.261       .  A
C584        O592   1.262       .  A
C584        C620   1.476       .  S
O585        C593   1.260       .  A
O586        C593   1.263       .  A
C587        O594   1.262       .  A
C587        O588   1.259       .  A
C587        C664   1.480       .  S
C589        O591   1.264       .  A
C589        O595   1.258       .  A
C589       C1786   1.482       .  S
C593       C1896   1.487       .  S
In596       O598   2.252       .  S
In596       O599   2.261       .  S
In596       O607   2.261       .  S
In596       O601   2.242       .  S
In596       O603   2.257       .  S
In596       O604   2.249       .  S
In596       O605   2.241       .  S
In596       O608   2.245       .  S
C597        O603   1.261       .  A
C597        O605   1.259       .  A
C597        C609   1.477       .  S
O598        C606   1.259       .  A
O599        C606   1.260       .  A
C600        O607   1.262       .  A
C600        O601   1.261       .  A
C600        C686   1.481       .  S
C602        O604   1.263       .  A
C602        O608   1.261       .  A
C602       C2006   1.479       .  S
C606       C1830   1.482       .  S
C609        C610   1.405       .  A
C609        C614   1.406       .  A
C610        C611   1.399       .  A
C610        H623   1.083       .  S
C611        C612   1.401       .  A
C611        H624   1.083       .  S
C612        C613   1.399       .  A
C612        C615   1.440       .  S
C613        C614   1.398       .  A
C613        H625   1.084       .  S
C614        H626   1.083       .  S
C615        C616   1.206   1_655  T
C616        C617   1.440       .  S
C617        C618   1.401       .  A
C617        C622   1.399       .  A
C618        C619   1.400       .  A
C618        H627   1.083       .  S
C619        C620   1.406       .  A
C619        H628   1.083       .  S
C620        C621   1.405       .  A
C621        C622   1.397       .  A
C621        H629   1.083       .  S
C622        H630   1.084       .  S
C631        C632   1.413       .  A
C631        C636   1.412       .  A
C632        C633   1.399       .  A
C632        H645   1.080       .  S
C633        C634   1.397       .  A
C633        H646   1.084       .  S
C634        C635   1.397       .  A
C634        C637   1.442       .  S
C635        C636   1.399       .  A
C635        H647   1.084       .  S
C636        H648   1.077       .  S
C637        C638   1.207       .  T
C638        C639   1.442       .  S
C639        C640   1.400       .  A
C639        C644   1.401       .  A
C640        C641   1.399       .  A
C640        H649   1.083       .  S
C641        C642   1.406       .  A
C641        H650   1.083       .  S
C642        C643   1.407       .  A
C643        C644   1.400       .  A
C643        H651   1.083       .  S
C644        H652   1.083       .  S
C653        C654   1.410       .  A
C653        C658   1.414       .  A
C654        C655   1.398       .  A
C654        H667   1.083       .  S
C655        C656   1.398       .  A
C655        H668   1.083       .  S
C656        C657   1.398       .  A
C656        C659   1.442       .  S
C657        C658   1.400       .  A
C657        H669   1.084       .  S
C658        H670   1.076       .  S
C659        C660   1.208       .  T
C660        C661   1.442       .  S
C661        C662   1.399       .  A
C661        C666   1.402       .  A
C662        C663   1.397       .  A
C662        H671   1.084       .  S
C663        C664   1.406       .  A
C663        H672   1.083       .  S
C664        C665   1.407       .  A
C665        C666   1.403       .  A
C665        H673   1.083       .  S
C666        H674   1.083       .  S
C675        C676   1.411       .  A
C675        C680   1.413       .  A
C676        C677   1.399       .  A
C676        H689   1.083       .  S
C677        C678   1.398       .  A
C677        H690   1.083       .  S
C678        C679   1.399       .  A
C678        C681   1.444       .  S
C679        C680   1.401       .  A
C679        H691   1.084       .  S
C680        H692   1.077       .  S
C681        C682   1.209       .  T
C682        C683   1.444       .  S
C683        C684   1.400       .  A
C683        C688   1.402       .  A
C684        C685   1.399       .  A
C684        H693   1.084       .  S
C685        C686   1.406       .  A
C685        H694   1.083       .  S
C686        C687   1.407       .  A
C687        C688   1.402       .  A
C687        H695   1.083       .  S
C688        H696   1.083       .  S
C697        C698   1.407       .  A
C697        C702   1.406       .  A
C698        C699   1.401       .  A
C698        H711   1.083       .  S
C699        C700   1.401       .  A
C699        H712   1.083       .  S
C700        C701   1.401       .  A
C700        C703   1.444       .  S
C701        C702   1.400       .  A
C701        H713   1.084       .  S
C702        H714   1.083       .  S
C703        C704   1.209       .  T
C704        C705   1.444       .  S
C705        C706   1.400       .  A
C705        C710   1.401       .  A
C706        C707   1.398       .  A
C706        H715   1.084       .  S
C707        C708   1.403       .  A
C707        H716   1.078       .  S
C708        C709   1.407       .  A
C709        C710   1.401       .  A
C709        H717   1.083       .  S
C710        H718   1.083       .  S
C719        C720   1.408       .  A
C719        C724   1.408       .  A
C720        C721   1.400       .  A
C720        H733   1.083       .  S
C721        C722   1.400       .  A
C721        H734   1.083       .  S
C722        C723   1.405       .  A
C722        C725   1.453       .  S
C723        C724   1.407       .  A
C723        H735   1.083       .  S
C724        H736   1.083       .  S
C725        C726   1.214       .  T
C726        C727   1.453       .  S
C727        C728   1.401       .  A
C727        C732   1.404       .  A
C728        C729   1.401       .  A
C728        H737   1.083       .  S
C729        C730   1.408       .  A
C729        H738   1.083       .  S
C730        C731   1.408       .  A
C731        C732   1.406       .  A
C731        H739   1.083       .  S
C732        H740   1.083       .  S
C741        C742   1.406       .  A
C741        C746   1.407       .  A
C742        C743   1.400       .  A
C742        H755   1.083       .  S
C743        C744   1.401       .  A
C743        H756   1.084       .  S
C744        C745   1.399       .  A
C744        C747   1.441       .  S
C745        C746   1.399       .  A
C745        H757   1.083       .  S
C746        H758   1.083       .  S
C747        C748   1.207       .  T
C748        C749   1.440       .  S
C749        C750   1.401       .  A
C749        C754   1.399       .  A
C750        C751   1.401       .  A
C750        H759   1.083       .  S
C751        C752   1.406       .  A
C751        H760   1.083       .  S
C752        C753   1.405       .  A
C753        C754   1.397       .  A
C753        H761   1.083       .  S
C754        H762   1.084       .  S
C763        C764   1.408       .  A
C763        C768   1.407       .  A
C764        C765   1.405       .  A
C764        H777   1.083       .  S
C765        C766   1.403       .  A
C765        H778   1.083       .  S
C766        C767   1.401       .  A
C766        C769   1.451       .  S
C767        C768   1.401       .  A
C767        H779   1.083       .  S
C768        H780   1.083       .  S
C769        C770   1.213       .  T
C770        C771   1.451       .  S
C771        C772   1.400       .  A
C771        C776   1.400       .  A
C772        C773   1.402       .  A
C772        H781   1.083       .  S
C773        C774   1.413       .  A
C773        H782   1.083       .  S
C774        C775   1.413       .  A
C775        C776   1.403       .  A
C775        H783   1.077       .  S
C776        H784   1.084       .  S
C785        C786   1.408       .  A
C785        C790   1.407       .  A
C786        C787   1.401       .  A
C786        H799   1.083       .  S
C787        C788   1.401       .  A
C787        H800   1.083       .  S
C788        C789   1.403       .  A
C788        C791   1.450       .  S
C789        C790   1.404       .  A
C789        H801   1.083       .  S
C790        H802   1.083       .  S
C791        C792   1.212       .  T
C792        C793   1.450       .  S
C793        C794   1.402       .  A
C793        C798   1.401       .  A
C794        C795   1.403       .  A
C794        H803   1.083       .  S
C795        C796   1.408       .  A
C795        H804   1.083       .  S
C796        C797   1.407       .  A
C797        C798   1.402       .  A
C797        H805   1.079       .  S
C798        H806   1.083       .  S
C807        C808   1.414       .  A
C807        C812   1.412       .  A
C808        C809   1.400       .  A
C808        H821   1.080       .  S
C809        C810   1.397       .  A
C809        H822   1.084       .  S
C810        C811   1.395       .  A
C810        C813   1.439       .  S
C811        C812   1.396       .  A
C811        H823   1.084       .  S
C812        H824   1.076       .  S
C813        C814   1.206       .  T
C814        C815   1.439       .  S
C815        C816   1.398       .  A
C815        C820   1.401       .  A
C816        C817   1.397       .  A
C816        H825   1.084       .  S
C817        C818   1.406       .  A
C817        H826   1.083       .  S
C818        C819   1.406       .  A
C819        C820   1.400       .  A
C819        H827   1.083       .  S
C820        H828   1.083       .  S
C829        C830   1.408       .  A
C829        C834   1.405       .  A
C830        C831   1.400       .  A
C830        H843   1.083       .  S
C831        C832   1.400       .  A
C831        H844   1.083       .  S
C832        C833   1.402       .  A
C832        C835   1.446       .  S
C833        C834   1.402       .  A
C833        H845   1.083       .  S
C834        H846   1.080       .  S
C835        C836   1.210       .  T
C836        C837   1.446       .  S
C837        C838   1.400       .  A
C837        C842   1.402       .  A
C838        C839   1.400       .  A
C838        H847   1.084       .  S
C839        C840   1.406       .  A
C839        H848   1.083       .  S
C840        C841   1.408       .  A
C841        C842   1.403       .  A
C841        H849   1.083       .  S
C842        H850   1.083       .  S
C851        C852   1.407       .  A
C851        C856   1.406       .  A
C852        C853   1.399       .  A
C852        H865   1.083       .  S
C853        C854   1.400       .  A
C853        H866   1.084       .  S
C854        C855   1.403       .  A
C854        C857   1.448       .  S
C855        C856   1.404       .  A
C855        H867   1.083       .  S
C856        H868   1.083       .  S
C857        C858   1.211       .  T
C858        C859   1.448       .  S
C859        C860   1.399       .  A
C859        C864   1.400       .  A
C860        C861   1.401       .  A
C860        H869   1.083       .  S
C861        C862   1.412       .  A
C861        H870   1.083       .  S
C862        C863   1.413       .  A
C863        C864   1.403       .  A
C863        H871   1.077       .  S
C864        H872   1.084       .  S
C873        C874   1.409       .  A
C873        C878   1.409       .  A
C874        C875   1.404       .  A
C874        H887   1.082       .  S
C875        C876   1.402       .  A
C875        H888   1.083       .  S
C876        C877   1.401       .  A
C876        C879   1.451       .  S
C877        C878   1.401       .  A
C877        H889   1.083       .  S
C878        H890   1.082       .  S
C879        C880   1.213       .  T
C880        C881   1.451       .  S
C881        C882   1.400       .  A
C881        C886   1.404       .  A
C882        C883   1.399       .  A
C882        H891   1.084       .  S
C883        C884   1.408       .  A
C883        H892   1.083       .  S
C884        C885   1.407       .  A
C885        C886   1.406       .  A
C885        H893   1.083       .  S
C886        H894   1.083       .  S
C895        C896   1.406       .  A
C895        C900   1.406       .  A
C896        C897   1.400       .  A
C896        H909   1.083       .  S
C897        C898   1.401       .  A
C897        H910   1.083       .  S
C898        C899   1.400       .  A
C898        C901   1.442       .  S
C899        C900   1.399       .  A
C899        H911   1.084       .  S
C900        H912   1.083       .  S
C901        C902   1.207       .  T
C902        C903   1.442       .  S
C903        C904   1.397       .  A
C903        C908   1.398       .  A
C904        C905   1.399       .  A
C904        H913   1.084       .  S
C905        C906   1.410       .  A
C905        H914   1.075       .  S
C906        C907   1.411       .  A
C907        C908   1.399       .  A
C907        H915   1.081       .  S
C908        H916   1.083       .  S
C917        C918   1.407   1_455  A
C917        C922   1.408       .  A
C918        C919   1.404       .  A
C918        H931   1.083       .  S
C919        C920   1.403       .  A
C919        H932   1.083       .  S
C920        C921   1.402   1_655  A
C920        C923   1.451       .  S
C921        C922   1.402       .  A
C921        H933   1.083       .  S
C922        H934   1.083       .  S
C923        C924   1.213       .  T
C924        C925   1.451       .  S
C925        C926   1.404       .  A
C925        C930   1.400       .  A
C926        C927   1.406       .  A
C926        H935   1.083   1_655  S
C927        C928   1.408       .  A
C927        H936   1.083       .  S
C928        C929   1.407       .  A
C929        C930   1.400       .  A
C929        H937   1.083       .  S
C930        H938   1.083       .  S
C939        C940   1.406       .  A
C939        C944   1.407       .  A
C940        C941   1.399       .  A
C940        H953   1.083       .  S
C941        C942   1.400       .  A
C941        H954   1.083       .  S
C942        C943   1.401       .  A
C942        C945   1.444       .  S
C943        C944   1.401       .  A
C943        H955   1.083       .  S
C944        H956   1.083       .  S
C945        C946   1.208       .  T
C946        C947   1.443       .  S
C947        C948   1.402       .  A
C947        C952   1.398       .  A
C948        C949   1.403       .  A
C948        H957   1.083       .  S
C949        C950   1.406       .  A
C949        H958   1.083       .  S
C950        C951   1.409       .  A
C951        C952   1.396       .  A
C951        H959   1.082       .  S
C952        H960   1.084       .  S
C961        C962   1.407       .  A
C961        C966   1.407       .  A
C962        C963   1.400       .  A
C962        H975   1.083       .  S
C963        C964   1.401       .  A
C963        H976   1.084       .  S
C964        C965   1.402       .  A
C964        C967   1.448       .  S
C965        C966   1.403       .  A
C965        H977   1.083       .  S
C966        H978   1.083       .  S
C967        C968   1.211       .  T
C968        C969   1.448       .  S
C969        C970   1.403       .  A
C969        C974   1.400       .  A
C970        C971   1.404       .  A
C970        H979   1.083       .  S
C971        C972   1.407       .  A
C971        H980   1.083       .  S
C972        C973   1.407       .  A
C973        C974   1.400       .  A
C973        H981   1.083       .  S
C974        H982   1.084       .  S
C983        C984   1.406       .  A
C983        C988   1.408       .  A
C984        C985   1.396   1_565  A
C984        H997   1.083       .  S
C985        C986   1.398       .  A
C985        H998   1.084       .  S
C986        C987   1.405   1_545  A
C986        C989   1.447       .  S
C987        C988   1.407       .  A
C987        H999   1.083       .  S
C988       H1000   1.083       .  S
C989        C990   1.211       .  T
C990        C991   1.448       .  S
C991        C992   1.399       .  A
C991        C996   1.402       .  A
C992        C993   1.400       .  A
C992       H1001   1.084       .  S
C993        C994   1.406       .  A
C993       H1002   1.076       .  S
C994        C995   1.409       .  A
C995        C996   1.403       .  A
C995       H1003   1.082       .  S
C996       H1004   1.083       .  S
C1005      C1006   1.406       .  A
C1005      C1010   1.405       .  A
C1006      C1007   1.397       .  A
C1006      H1019   1.083       .  S
C1007      C1008   1.400       .  A
C1007      H1020   1.084       .  S
C1008      C1009   1.400       .  A
C1008      C1011   1.438   1_545  S
C1009      C1010   1.398       .  A
C1009      H1021   1.083       .  S
C1010      H1022   1.083       .  S
C1011      C1012   1.205   1_455  T
C1012      C1013   1.438       .  S
C1013      C1014   1.399       .  A
C1013      C1018   1.400       .  A
C1014      C1015   1.398       .  A
C1014      H1023   1.084       .  S
C1015      C1016   1.406       .  A
C1015      H1024   1.083       .  S
C1016      C1017   1.406       .  A
C1017      C1018   1.398       .  A
C1017      H1025   1.083       .  S
C1018      H1026   1.084       .  S
C1027      C1028   1.407       .  A
C1027      C1032   1.407       .  A
C1028      C1029   1.401       .  A
C1028      H1041   1.083   1_455  S
C1029      C1030   1.401       .  A
C1029      H1042   1.083       .  S
C1030      C1031   1.402       .  A
C1030      C1033   1.447       .  S
C1031      C1032   1.402       .  A
C1031      H1043   1.083       .  S
C1032      H1044   1.083       .  S
C1033      C1034   1.211       .  T
C1034      C1035   1.447       .  S
C1035      C1036   1.403       .  A
C1035      C1040   1.400       .  A
C1036      C1037   1.404       .  A
C1036      H1045   1.083       .  S
C1037      C1038   1.407       .  A
C1037      H1046   1.083       .  S
C1038      C1039   1.408       .  A
C1039      C1040   1.399       .  A
C1039      H1047   1.083       .  S
C1040      H1048   1.084       .  S
C1049      C1050   1.408       .  A
C1049      C1054   1.407   1_545  A
C1050      C1051   1.407   1_545  A
C1050      H1063   1.083       .  S
C1051      C1052   1.405       .  A
C1051      H1064   1.083       .  S
C1052      C1053   1.398       .  A
C1052      C1055   1.448       .  S
C1053      C1054   1.396       .  A
C1053      H1065   1.084       .  S
C1054      H1066   1.083       .  S
C1055      C1056   1.211       .  T
C1056      C1057   1.449       .  S
C1057      C1058   1.401       .  A
C1057      C1062   1.401       .  A
C1058      C1059   1.402       .  A
C1058      H1067   1.083       .  S
C1059      C1060   1.408       .  A
C1059      H1068   1.083       .  S
C1060      C1061   1.408       .  A
C1061      C1062   1.402       .  A
C1061      H1069   1.082       .  S
C1062      H1070   1.083       .  S
C1071      C1072   1.406       .  A
C1071      C1076   1.407       .  A
C1072      C1073   1.403       .  A
C1072      H1085   1.083       .  S
C1073      C1074   1.402       .  A
C1073      H1086   1.083       .  S
C1074      C1075   1.399       .  A
C1074      C1077   1.444       .  S
C1075      C1076   1.398       .  A
C1075      H1087   1.084       .  S
C1076      H1088   1.083       .  S
C1077      C1078   1.209       .  T
C1078      C1079   1.444       .  S
C1079      C1080   1.398       .  A
C1079      C1084   1.399       .  A
C1080      C1081   1.399       .  A
C1080      H1089   1.083       .  S
C1081      C1082   1.412       .  A
C1081      H1090   1.083       .  S
C1082      C1083   1.413       .  A
C1083      C1084   1.401       .  A
C1083      H1091   1.077       .  S
C1084      H1092   1.084       .  S
C1093      C1094   1.408       .  A
C1093      C1098   1.411       .  A
C1094      C1095   1.408       .  A
C1094      H1107   1.082       .  S
C1095      C1096   1.404       .  A
C1095      H1108   1.083       .  S
C1096      C1097   1.398       .  A
C1096      C1099   1.450       .  S
C1097      C1098   1.397       .  A
C1097      H1109   1.084       .  S
C1098      H1110   1.082       .  S
C1099      C1100   1.212       .  T
C1100      C1101   1.450       .  S
C1101      C1102   1.400       .  A
C1101      C1106   1.404       .  A
C1102      C1103   1.399       .  A
C1102      H1111   1.084       .  S
C1103      C1104   1.407       .  A
C1103      H1112   1.083       .  S
C1104      C1105   1.408       .  A
C1105      C1106   1.406       .  A
C1105      H1113   1.083       .  S
C1106      H1114   1.083       .  S
C1115      C1116   1.406       .  A
C1115      C1120   1.407       .  A
C1116      C1117   1.399       .  A
C1116      H1129   1.083       .  S
C1117      C1118   1.400       .  A
C1117      H1130   1.083       .  S
C1118      C1119   1.399       .  A
C1118      C1121   1.439       .  S
C1119      C1120   1.397       .  A
C1119      H1131   1.084       .  S
C1120      H1132   1.083       .  S
C1121      C1122   1.206       .  T
C1122      C1123   1.439       .  S
C1123      C1124   1.400       .  A
C1123      C1128   1.400       .  A
C1124      C1125   1.399       .  A
C1124      H1133   1.084       .  S
C1125      C1126   1.406       .  A
C1125      H1134   1.083       .  S
C1126      C1127   1.406       .  A
C1127      C1128   1.398       .  A
C1127      H1135   1.083       .  S
C1128      H1136   1.083       .  S
C1137      C1138   1.407       .  A
C1137      C1142   1.407       .  A
C1138      C1139   1.404       .  A
C1138      H1151   1.083       .  S
C1139      C1140   1.403       .  A
C1139      H1152   1.083       .  S
C1140      C1141   1.400       .  A
C1140      C1143   1.448       .  S
C1141      C1142   1.399       .  A
C1141      H1153   1.084       .  S
C1142      H1154   1.083       .  S
C1143      C1144   1.211       .  T
C1144      C1145   1.448       .  S
C1145      C1146   1.401       .  A
C1145      C1150   1.402       .  A
C1146      C1147   1.402       .  A
C1146      H1155   1.083       .  S
C1147      C1148   1.407       .  A
C1147      H1156   1.083       .  S
C1148      C1149   1.407       .  A
C1149      C1150   1.402       .  A
C1149      H1157   1.083       .  S
C1150      H1158   1.083       .  S
C1159      C1160   1.407       .  A
C1159      C1164   1.407       .  A
C1160      C1161   1.404       .  A
C1160      H1173   1.083       .  S
C1161      C1162   1.403       .  A
C1161      H1174   1.083       .  S
C1162      C1163   1.400       .  A
C1162      C1165   1.447       .  S
C1163      C1164   1.400       .  A
C1163      H1175   1.084       .  S
C1164      H1176   1.083       .  S
C1165      C1166   1.211   1_455  T
C1166      C1167   1.447       .  S
C1167      C1168   1.403       .  A
C1167      C1172   1.400       .  A
C1168      C1169   1.404       .  A
C1168      H1177   1.083       .  S
C1169      C1170   1.407       .  A
C1169      H1178   1.083       .  S
C1170      C1171   1.407       .  A
C1171      C1172   1.399       .  A
C1171      H1179   1.083       .  S
C1172      H1180   1.084       .  S
C1181      C1182   1.407       .  A
C1181      C1186   1.407       .  A
C1182      C1183   1.405       .  A
C1182      H1195   1.083       .  S
C1183      C1184   1.403       .  A
C1183      H1196   1.083       .  S
C1184      C1185   1.400       .  A
C1184      C1187   1.449       .  S
C1185      C1186   1.400       .  A
C1185      H1197   1.084       .  S
C1186      H1198   1.083       .  S
C1187      C1188   1.212       .  T
C1188      C1189   1.449       .  S
C1189      C1190   1.402       .  A
C1189      C1194   1.402       .  A
C1190      C1191   1.402       .  A
C1190      H1199   1.083       .  S
C1191      C1192   1.407       .  A
C1191      H1200   1.083       .  S
C1192      C1193   1.407       .  A
C1193      C1194   1.402       .  A
C1193      H1201   1.083       .  S
C1194      H1202   1.083       .  S
C1203      C1204   1.406       .  A
C1203      C1208   1.406       .  A
C1204      C1205   1.399       .  A
C1204      H1217   1.083       .  S
C1205      C1206   1.400       .  A
C1205      H1218   1.084       .  S
C1206      C1207   1.400       .  A
C1206      C1209   1.440       .  S
C1207      C1208   1.399       .  A
C1207      H1219   1.083       .  S
C1208      H1220   1.083       .  S
C1209      C1210   1.206       .  T
C1210      C1211   1.440       .  S
C1211      C1212   1.400       .  A
C1211      C1216   1.400       .  A
C1212      C1213   1.398       .  A
C1212      H1221   1.083       .  S
C1213      C1214   1.405       .  A
C1213      H1222   1.083       .  S
C1214      C1215   1.406       .  A
C1215      C1216   1.398       .  A
C1215      H1223   1.083       .  S
C1216      H1224   1.083       .  S
C1225      C1226   1.412       .  A
C1225      C1230   1.412       .  A
C1226      C1227   1.399       .  A
C1226      H1239   1.077       .  S
C1227      C1228   1.398       .  A
C1227      H1240   1.084       .  S
C1228      C1229   1.398       .  A
C1228      C1231   1.442       .  S
C1229      C1230   1.399       .  A
C1229      H1241   1.083       .  S
C1230      H1242   1.083       .  S
C1231      C1232   1.208       .  T
C1232      C1233   1.442       .  S
C1233      C1234   1.401       .  A
C1233      C1238   1.400       .  A
C1234      C1235   1.401       .  A
C1234      H1243   1.083       .  S
C1235      C1236   1.406       .  A
C1235      H1244   1.083       .  S
C1236      C1237   1.407       .  A
C1237      C1238   1.398       .  A
C1237      H1245   1.083       .  S
C1238      H1246   1.084       .  S
C1247      C1248   1.408       .  A
C1247      C1252   1.407       .  A
C1248      C1249   1.406       .  A
C1248      H1261   1.083       .  S
C1249      C1250   1.403       .  A
C1249      H1262   1.083       .  S
C1250      C1251   1.400       .  A
C1250      C1253   1.448       .  S
C1251      C1252   1.398       .  A
C1251      H1263   1.084       .  S
C1252      H1264   1.083       .  S
C1253      C1254   1.211       .  T
C1254      C1255   1.448       .  S
C1255      C1256   1.398       .  A
C1255      C1260   1.403       .  A
C1256      C1257   1.397       .  A
C1256      H1265   1.084       .  S
C1257      C1258   1.408       .  A
C1257      H1266   1.082       .  S
C1258      C1259   1.409       .  A
C1259      C1260   1.406       .  A
C1259      H1267   1.082       .  S
C1260      H1268   1.083       .  S
C1269      C1270   1.406       .  A
C1269      C1274   1.406       .  A
C1270      C1271   1.399       .  A
C1270      H1283   1.083       .  S
C1271      C1272   1.400       .  A
C1271      H1284   1.083       .  S
C1272      C1273   1.399       .  A
C1272      C1275   1.438       .  S
C1273      C1274   1.397       .  A
C1273      H1285   1.084       .  S
C1274      H1286   1.083       .  S
C1275      C1276   1.205   1_455  T
C1276      C1277   1.438       .  S
C1277      C1278   1.401       .  A
C1277      C1282   1.399       .  A
C1278      C1279   1.399       .  A
C1278      H1287   1.083       .  S
C1279      C1280   1.406       .  A
C1279      H1288   1.083       .  S
C1280      C1281   1.406       .  A
C1281      C1282   1.397       .  A
C1281      H1289   1.083       .  S
C1282      H1290   1.084       .  S
C1291      C1292   1.412       .  A
C1291      C1296   1.414       .  A
C1292      C1293   1.402       .  A
C1292      H1305   1.083       .  S
C1293      C1294   1.399       .  A
C1293      H1306   1.083       .  S
C1294      C1295   1.399       .  A
C1294      C1297   1.448       .  S
C1295      C1296   1.401       .  A
C1295      H1307   1.084       .  S
C1296      H1308   1.077       .  S
C1297      C1298   1.211       .  T
C1298      C1299   1.448   1_554  S
C1299      C1300   1.400       .  A
C1299      C1304   1.403       .  A
C1300      C1301   1.400       .  A
C1300      H1309   1.083   1_556  S
C1301      C1302   1.407       .  A
C1301      H1310   1.083       .  S
C1302      C1303   1.407       .  A
C1303      C1304   1.404       .  A
C1303      H1311   1.083       .  S
C1304      H1312   1.083       .  S
C1313      C1314   1.407       .  A
C1313      C1318   1.407       .  A
C1314      C1315   1.401       .  A
C1314      H1327   1.083       .  S
C1315      C1316   1.401       .  A
C1315      H1328   1.083       .  S
C1316      C1317   1.402       .  A
C1316      C1319   1.446       .  S
C1317      C1318   1.401       .  A
C1317      H1329   1.083       .  S
C1318      H1330   1.083       .  S
C1319      C1320   1.210       .  T
C1320      C1321   1.446       .  S
C1321      C1322   1.400       .  A
C1321      C1326   1.401       .  A
C1322      C1323   1.400       .  A
C1322      H1331   1.083       .  S
C1323      C1324   1.407       .  A
C1323      H1332   1.082       .  S
C1324      C1325   1.409       .  A
C1325      C1326   1.402       .  A
C1325      H1333   1.083       .  S
C1326      H1334   1.083       .  S
C1335      C1336   1.406       .  A
C1335      C1340   1.406       .  A
C1336      C1337   1.399       .  A
C1336      H1349   1.083       .  S
C1337      C1338   1.400       .  A
C1337      H1350   1.083       .  S
C1338      C1339   1.400       .  A
C1338      C1341   1.441       .  S
C1339      C1340   1.399       .  A
C1339      H1351   1.084       .  S
C1340      H1352   1.083       .  S
C1341      C1342   1.207       .  T
C1342      C1343   1.441       .  S
C1343      C1344   1.398       .  A
C1343      C1348   1.398       .  A
C1344      C1345   1.398       .  A
C1344      H1353   1.084       .  S
C1345      C1346   1.408       .  A
C1345      H1354   1.076       .  S
C1346      C1347   1.411       .  A
C1347      C1348   1.399       .  A
C1347      H1355   1.081       .  S
C1348      H1356   1.083       .  S
C1357      C1358   1.408       .  A
C1357      C1362   1.406       .  A
C1358      C1359   1.404       .  A
C1358      H1371   1.083       .  S
C1359      C1360   1.403       .  A
C1359      H1372   1.083       .  S
C1360      C1361   1.400       .  A
C1360      C1363   1.447       .  S
C1361      C1362   1.399       .  A
C1361      H1373   1.084       .  S
C1362      H1374   1.083       .  S
C1363      C1364   1.211       .  T
C1364      C1365   1.447       .  S
C1365      C1366   1.397       .  A
C1365      C1370   1.404       .  A
C1366      C1367   1.397       .  A
C1366      H1375   1.084       .  S
C1367      C1368   1.411       .  A
C1367      H1376   1.082       .  S
C1368      C1369   1.408       .  A
C1369      C1370   1.406       .  A
C1369      H1377   1.082       .  S
C1370      H1378   1.083       .  S
C1379      C1380   1.412       .  A
C1379      C1384   1.413       .  A
C1380      C1381   1.401       .  A
C1380      H1393   1.083       .  S
C1381      C1382   1.399       .  A
C1381      H1394   1.083       .  S
C1382      C1383   1.398       .  A
C1382      C1385   1.446       .  S
C1383      C1384   1.400       .  A
C1383      H1395   1.084       .  S
C1384      H1396   1.077       .  S
C1385      C1386   1.210       .  T
C1386      C1387   1.446   1_554  S
C1387      C1388   1.399       .  A
C1387      C1392   1.403       .  A
C1388      C1389   1.398       .  A
C1388      H1397   1.084   1_556  S
C1389      C1390   1.407       .  A
C1389      H1398   1.083       .  S
C1390      C1391   1.407       .  A
C1391      C1392   1.404       .  A
C1391      H1399   1.083       .  S
C1392      H1400   1.083       .  S
C1401      C1402   1.408       .  A
C1401      C1406   1.407       .  A
C1402      C1403   1.404       .  A
C1402      H1415   1.083       .  S
C1403      C1404   1.402       .  A
C1403      H1416   1.083       .  S
C1404      C1405   1.401       .  A
C1404      C1407   1.449       .  S
C1405      C1406   1.401       .  A
C1405      H1417   1.083       .  S
C1406      H1418   1.083       .  S
C1407      C1408   1.212       .  T
C1408      C1409   1.449       .  S
C1409      C1410   1.400       .  A
C1409      C1414   1.403       .  A
C1410      C1411   1.400       .  A
C1410      H1419   1.083       .  S
C1411      C1412   1.409       .  A
C1411      H1420   1.083       .  S
C1412      C1413   1.406       .  A
C1413      C1414   1.404       .  A
C1413      H1421   1.083       .  S
C1414      H1422   1.083       .  S
C1423      C1424   1.406       .  A
C1423      C1428   1.406       .  A
C1424      C1425   1.398       .  A
C1424      H1437   1.083       .  S
C1425      C1426   1.400       .  A
C1425      H1438   1.084       .  S
C1426      C1427   1.400       .  A
C1426      C1429   1.440       .  S
C1427      C1428   1.399       .  A
C1427      H1439   1.083       .  S
C1428      H1440   1.083       .  S
C1429      C1430   1.206       .  T
C1430      C1431   1.440       .  S
C1431      C1432   1.398       .  A
C1431      C1436   1.398       .  A
C1432      C1433   1.398       .  A
C1432      H1441   1.083       .  S
C1433      C1434   1.410       .  A
C1433      H1442   1.082       .  S
C1434      C1435   1.407       .  A
C1435      C1436   1.398       .  A
C1435      H1443   1.076       .  S
C1436      H1444   1.084       .  S
C1445      C1446   1.408       .  A
C1445      C1450   1.407   1_545  A
C1446      C1447   1.400       .  A
C1446      H1459   1.083       .  S
C1447      C1448   1.400   1_545  A
C1447      H1460   1.083       .  S
C1448      C1449   1.404       .  A
C1448      C1451   1.451       .  S
C1449      C1450   1.406       .  A
C1449      H1461   1.083       .  S
C1450      H1462   1.083       .  S
C1451      C1452   1.213   1_455  T
C1452      C1453   1.451       .  S
C1453      C1454   1.401       .  A
C1453      C1458   1.403       .  A
C1454      C1455   1.402       .  A
C1454      H1463   1.083       .  S
C1455      C1456   1.408       .  A
C1455      H1464   1.083       .  S
C1456      C1457   1.407       .  A
C1457      C1458   1.405       .  A
C1457      H1465   1.083       .  S
C1458      H1466   1.083   1_565  S
C1467      C1468   1.407       .  A
C1467      C1472   1.410       .  A
C1468      C1469   1.404       .  A
C1468      H1481   1.082       .  S
C1469      C1470   1.402       .  A
C1469      H1482   1.083       .  S
C1470      C1471   1.398       .  A
C1470      C1473   1.445       .  S
C1471      C1472   1.397       .  A
C1471      H1483   1.084       .  S
C1472      H1484   1.082       .  S
C1473      C1474   1.209       .  T
C1474      C1475   1.445       .  S
C1475      C1476   1.400       .  A
C1475      C1480   1.401       .  A
C1476      C1477   1.399       .  A
C1476      H1485   1.084       .  S
C1477      C1478   1.406       .  A
C1477      H1486   1.083       .  S
C1478      C1479   1.407       .  A
C1479      C1480   1.402       .  A
C1479      H1487   1.083       .  S
C1480      H1488   1.083       .  S
C1489      C1490   1.406       .  A
C1489      C1494   1.406       .  A
C1490      C1491   1.398       .  A
C1490      H1503   1.083       .  S
C1491      C1492   1.400       .  A
C1491      H1504   1.084       .  S
C1492      C1493   1.401       .  A
C1492      C1495   1.440       .  S
C1493      C1494   1.400       .  A
C1493      H1505   1.083       .  S
C1494      H1506   1.083       .  S
C1495      C1496   1.206       .  T
C1496      C1497   1.440       .  S
C1497      C1498   1.401       .  A
C1497      C1502   1.399       .  A
C1498      C1499   1.400       .  A
C1498      H1507   1.083       .  S
C1499      C1500   1.406       .  A
C1499      H1508   1.083       .  S
C1500      C1501   1.406       .  A
C1501      C1502   1.398       .  A
C1501      H1509   1.083       .  S
C1502      H1510   1.084       .  S
C1511      C1512   1.407       .  A
C1511      C1516   1.407       .  A
C1512      C1513   1.400       .  A
C1512      H1525   1.082       .  S
C1513      C1514   1.400       .  A
C1513      H1526   1.083       .  S
C1514      C1515   1.398       .  A
C1514      C1517   1.439       .  S
C1515      C1516   1.396       .  A
C1515      H1527   1.084       .  S
C1516      H1528   1.082       .  S
C1517      C1518   1.206       .  T
C1518      C1519   1.439       .  S
C1519      C1520   1.400       .  A
C1519      C1524   1.399       .  A
C1520      C1521   1.399       .  A
C1520      H1529   1.083       .  S
C1521      C1522   1.405       .  A
C1521      H1530   1.083       .  S
C1522      C1523   1.406       .  A
C1523      C1524   1.397       .  A
C1523      H1531   1.083       .  S
C1524      H1532   1.084       .  S
C1533      C1534   1.411       .  A
C1533      C1538   1.414       .  A
C1534      C1535   1.400       .  A
C1534      H1547   1.083       .  S
C1535      C1536   1.398       .  A
C1535      H1548   1.083       .  S
C1536      C1537   1.398       .  A
C1536      C1539   1.444       .  S
C1537      C1538   1.399       .  A
C1537      H1549   1.084       .  S
C1538      H1550   1.076       .  S
C1539      C1540   1.208       .  T
C1540      C1541   1.444       .  S
C1541      C1542   1.400       .  A
C1541      C1546   1.402       .  A
C1542      C1543   1.398       .  A
C1542      H1551   1.084       .  S
C1543      C1544   1.406       .  A
C1543      H1552   1.083       .  S
C1544      C1545   1.407       .  A
C1545      C1546   1.402       .  A
C1545      H1553   1.083       .  S
C1546      H1554   1.083       .  S
C1555      C1556   1.407       .  A
C1555      C1560   1.407   1_565  A
C1556      C1557   1.401       .  A
C1556      H1569   1.083       .  S
C1557      C1558   1.401       .  A
C1557      H1570   1.083       .  S
C1558      C1559   1.403   1_565  A
C1558      C1561   1.451       .  S
C1559      C1560   1.405       .  A
C1559      H1571   1.083       .  S
C1560      H1572   1.083       .  S
C1561      C1562   1.213       .  T
C1562      C1563   1.451       .  S
C1563      C1564   1.402   1_565  A
C1563      C1568   1.402       .  A
C1564      C1565   1.403       .  A
C1564      H1573   1.083       .  S
C1565      C1566   1.408       .  A
C1565      H1574   1.083       .  S
C1566      C1567   1.407   1_545  A
C1567      C1568   1.404       .  A
C1567      H1575   1.083       .  S
C1568      H1576   1.083       .  S
C1577      C1578   1.406       .  A
C1577      C1582   1.407       .  A
C1578      C1579   1.399       .  A
C1578      H1591   1.083       .  S
C1579      C1580   1.400       .  A
C1579      H1592   1.084       .  S
C1580      C1581   1.402       .  A
C1580      C1583   1.445       .  S
C1581      C1582   1.402       .  A
C1581      H1593   1.083       .  S
C1582      H1594   1.083       .  S
C1583      C1584   1.209       .  T
C1584      C1585   1.445       .  S
C1585      C1586   1.398       .  A
C1585      C1590   1.399       .  A
C1586      C1587   1.400       .  A
C1586      H1595   1.083       .  S
C1587      C1588   1.411       .  A
C1587      H1596   1.081       .  S
C1588      C1589   1.410       .  A
C1589      C1590   1.400       .  A
C1589      H1597   1.077       .  S
C1590      H1598   1.084       .  S
C1599      C1600   1.413       .  A
C1599      C1604   1.413       .  A
C1600      C1601   1.403       .  A
C1600      H1613   1.078       .  S
C1601      C1602   1.400       .  A
C1601      H1614   1.084       .  S
C1602      C1603   1.400       .  A
C1602      C1605   1.451       .  S
C1603      C1604   1.403       .  A
C1603      H1615   1.083       .  S
C1604      H1616   1.083       .  S
C1605      C1606   1.213       .  T
C1606      C1607   1.451       .  S
C1607      C1608   1.404       .  A
C1607      C1612   1.401       .  A
C1608      C1609   1.406       .  A
C1608      H1617   1.083       .  S
C1609      C1610   1.408       .  A
C1609      H1618   1.083       .  S
C1610      C1611   1.407       .  A
C1611      C1612   1.401       .  A
C1611      H1619   1.083       .  S
C1612      H1620   1.083       .  S
C1621      C1622   1.408       .  A
C1621      C1626   1.407       .  A
C1622      C1623   1.402       .  A
C1622      H1635   1.083       .  S
C1623      C1624   1.402       .  A
C1623      H1636   1.083       .  S
C1624      C1625   1.402       .  A
C1624      C1627   1.451       .  S
C1625      C1626   1.403       .  A
C1625      H1637   1.083       .  S
C1626      H1638   1.083       .  S
C1627      C1628   1.213       .  T
C1628      C1629   1.452       .  S
C1629      C1630   1.403       .  A
C1629      C1634   1.401       .  A
C1630      C1631   1.405       .  A
C1630      H1639   1.083       .  S
C1631      C1632   1.408       .  A
C1631      H1640   1.083       .  S
C1632      C1633   1.408       .  A
C1633      C1634   1.402       .  A
C1633      H1641   1.083       .  S
C1634      H1642   1.083       .  S
C1643      C1644   1.407       .  A
C1643      C1648   1.407   1_565  A
C1644      C1645   1.404       .  A
C1644      H1657   1.083       .  S
C1645      C1646   1.403   1_565  A
C1645      H1658   1.083       .  S
C1646      C1647   1.399       .  A
C1646      C1649   1.444       .  S
C1647      C1648   1.397       .  A
C1647      H1659   1.084       .  S
C1648      H1660   1.083       .  S
C1649      C1650   1.208       .  T
C1650      C1651   1.444       .  S
C1651      C1652   1.399       .  A
C1651      C1656   1.398       .  A
C1652      C1653   1.401       .  A
C1652      H1661   1.083       .  S
C1653      C1654   1.409       .  A
C1653      H1662   1.077       .  S
C1654      C1655   1.411       .  A
C1655      C1656   1.398       .  A
C1655      H1663   1.081       .  S
C1656      H1664   1.084       .  S
C1665      C1666   1.406       .  A
C1665      C1670   1.405       .  A
C1666      C1667   1.397       .  A
C1666      H1679   1.083       .  S
C1667      C1668   1.400       .  A
C1667      H1680   1.084       .  S
C1668      C1669   1.399       .  A
C1668      C1671   1.435       .  S
C1669      C1670   1.396       .  A
C1669      H1681   1.084       .  S
C1670      H1682   1.083       .  S
C1671      C1672   1.203   1_565  T
C1672      C1673   1.435       .  S
C1673      C1674   1.400       .  A
C1673      C1678   1.398       .  A
C1674      C1675   1.398       .  A
C1674      H1683   1.084       .  S
C1675      C1676   1.406       .  A
C1675      H1684   1.083       .  S
C1676      C1677   1.405       .  A
C1677      C1678   1.396       .  A
C1677      H1685   1.083       .  S
C1678      H1686   1.084       .  S
C1687      C1688   1.406       .  A
C1687      C1692   1.408       .  A
C1688      C1689   1.403       .  A
C1688      H1701   1.083       .  S
C1689      C1690   1.402       .  A
C1689      H1702   1.083       .  S
C1690      C1691   1.401       .  A
C1690      C1693   1.448       .  S
C1691      C1692   1.400       .  A
C1691      H1703   1.083       .  S
C1692      H1704   1.083       .  S
C1693      C1694   1.211       .  T
C1694      C1695   1.448       .  S
C1695      C1696   1.401       .  A
C1695      C1700   1.402       .  A
C1696      C1697   1.402       .  A
C1696      H1705   1.083       .  S
C1697      C1698   1.408       .  A
C1697      H1706   1.083       .  S
C1698      C1699   1.407       .  A
C1699      C1700   1.403       .  A
C1699      H1707   1.083       .  S
C1700      H1708   1.083       .  S
C1709      C1710   1.407       .  A
C1709      C1714   1.407   1_545  A
C1710      C1711   1.405   1_545  A
C1710      H1723   1.083       .  S
C1711      C1712   1.404       .  A
C1711      H1724   1.083       .  S
C1712      C1713   1.399       .  A
C1712      C1715   1.448       .  S
C1713      C1714   1.398       .  A
C1713      H1725   1.084       .  S
C1714      H1726   1.083       .  S
C1715      C1716   1.211       .  T
C1716      C1717   1.448       .  S
C1717      C1718   1.401       .  A
C1717      C1722   1.402       .  A
C1718      C1719   1.401       .  A
C1718      H1727   1.083       .  S
C1719      C1720   1.409       .  A
C1719      H1728   1.083       .  S
C1720      C1721   1.407       .  A
C1721      C1722   1.402       .  A
C1721      H1729   1.082       .  S
C1722      H1730   1.083       .  S
C1731      C1732   1.413       .  A
C1731      C1736   1.411       .  A
C1732      C1733   1.399       .  A
C1732      H1745   1.076       .  S
C1733      C1734   1.398       .  A
C1733      H1746   1.084       .  S
C1734      C1735   1.397       .  A
C1734      C1737   1.441       .  S
C1735      C1736   1.398       .  A
C1735      H1747   1.083       .  S
C1736      H1748   1.083       .  S
C1737      C1738   1.207       .  T
C1738      C1739   1.441       .  S
C1739      C1740   1.399       .  A
C1739      C1744   1.401       .  A
C1740      C1741   1.398       .  A
C1740      H1749   1.084       .  S
C1741      C1742   1.407       .  A
C1741      H1750   1.083       .  S
C1742      C1743   1.405       .  A
C1743      C1744   1.400       .  A
C1743      H1751   1.083       .  S
C1744      H1752   1.083       .  S
C1753      C1754   1.409       .  A
C1753      C1758   1.405       .  A
C1754      C1755   1.398       .  A
C1754      H1767   1.083       .  S
C1755      C1756   1.399       .  A
C1755      H1768   1.084       .  S
C1756      C1757   1.403       .  A
C1756      C1759   1.446       .  S
C1757      C1758   1.404       .  A
C1757      H1769   1.083       .  S
C1758      H1770   1.083       .  S
C1759      C1760   1.210       .  T
C1760      C1761   1.446       .  S
C1761      C1762   1.402       .  A
C1761      C1766   1.401       .  A
C1762      C1763   1.402       .  A
C1762      H1771   1.083       .  S
C1763      C1764   1.407       .  A
C1763      H1772   1.083       .  S
C1764      C1765   1.406       .  A
C1765      C1766   1.400       .  A
C1765      H1773   1.083       .  S
C1766      H1774   1.083       .  S
C1775      C1776   1.408       .  A
C1775      C1780   1.412       .  A
C1776      C1777   1.402       .  A
C1776      H1789   1.075       .  S
C1777      C1778   1.400       .  A
C1777      H1790   1.083       .  S
C1778      C1779   1.398       .  A
C1778      C1781   1.446       .  S
C1779      C1780   1.399       .  A
C1779      H1791   1.084       .  S
C1780      H1792   1.082       .  S
C1781      C1782   1.210       .  T
C1782      C1783   1.446       .  S
C1783      C1784   1.403   1_655  A
C1783      C1788   1.399       .  A
C1784      C1785   1.405       .  A
C1784      H1793   1.083       .  S
C1785      C1786   1.407       .  A
C1785      H1794   1.083       .  S
C1786      C1787   1.407       .  A
C1787      C1788   1.397   1_455  A
C1787      H1795   1.083       .  S
C1788      H1796   1.084       .  S
C1797      C1798   1.406       .  A
C1797      C1802   1.406       .  A
C1798      C1799   1.399       .  A
C1798      H1811   1.083       .  S
C1799      C1800   1.400       .  A
C1799      H1812   1.083       .  S
C1800      C1801   1.400       .  A
C1800      C1803   1.440       .  S
C1801      C1802   1.399       .  A
C1801      H1813   1.084       .  S
C1802      H1814   1.083       .  S
C1803      C1804   1.206       .  T
C1804      C1805   1.440       .  S
C1805      C1806   1.399       .  A
C1805      C1810   1.399       .  A
C1806      C1807   1.398       .  A
C1806      H1815   1.083       .  S
C1807      C1808   1.408       .  A
C1807      H1816   1.083       .  S
C1808      C1809   1.404       .  A
C1809      C1810   1.399       .  A
C1809      H1817   1.076       .  S
C1810      H1818   1.084       .  S
C1819      C1820   1.406       .  A
C1819      C1824   1.408       .  A
C1820      C1821   1.400       .  A
C1820      H1833   1.083       .  S
C1821      C1822   1.401       .  A
C1821      H1834   1.083       .  S
C1822      C1823   1.402       .  A
C1822      C1825   1.448       .  S
C1823      C1824   1.403       .  A
C1823      H1835   1.083       .  S
C1824      H1836   1.083       .  S
C1825      C1826   1.211       .  T
C1826      C1827   1.447       .  S
C1827      C1828   1.402       .  A
C1827      C1832   1.401       .  A
C1828      C1829   1.402       .  A
C1828      H1837   1.083       .  S
C1829      C1830   1.407       .  A
C1829      H1838   1.083       .  S
C1830      C1831   1.406       .  A
C1831      C1832   1.400       .  A
C1831      H1839   1.083       .  S
C1832      H1840   1.083       .  S
C1841      C1842   1.406       .  A
C1841      C1846   1.407       .  A
C1842      C1843   1.402       .  A
C1842      H1855   1.083       .  S
C1843      C1844   1.402       .  A
C1843      H1856   1.083       .  S
C1844      C1845   1.398       .  A
C1844      C1847   1.441       .  S
C1845      C1846   1.395       .  A
C1845      H1857   1.084       .  S
C1846      H1858   1.083       .  S
C1847      C1848   1.207       .  T
C1848      C1849   1.442       .  S
C1849      C1850   1.399       .  A
C1849      C1854   1.402       .  A
C1850      C1851   1.398       .  A
C1850      H1859   1.084       .  S
C1851      C1852   1.407       .  A
C1851      H1860   1.083       .  S
C1852      C1853   1.407       .  A
C1853      C1854   1.402       .  A
C1853      H1861   1.083       .  S
C1854      H1862   1.083       .  S
C1863      C1864   1.408       .  A
C1863      C1868   1.408       .  A
C1864      C1865   1.403       .  A
C1864      H1877   1.083       .  S
C1865      C1866   1.402       .  A
C1865      H1878   1.083       .  S
C1866      C1867   1.404       .  A
C1866      C1869   1.456       .  S
C1867      C1868   1.407       .  A
C1867      H1879   1.083       .  S
C1868      H1880   1.083       .  S
C1869      C1870   1.216       .  T
C1870      C1871   1.456       .  S
C1871      C1872   1.402       .  A
C1871      C1876   1.404       .  A
C1872      C1873   1.403       .  A
C1872      H1881   1.083       .  S
C1873      C1874   1.408       .  A
C1873      H1882   1.083       .  S
C1874      C1875   1.408       .  A
C1875      C1876   1.407       .  A
C1875      H1883   1.083       .  S
C1876      H1884   1.083       .  S
C1885      C1886   1.408       .  A
C1885      C1890   1.408       .  A
C1886      C1887   1.405       .  A
C1886      H1899   1.083       .  S
C1887      C1888   1.403       .  A
C1887      H1900   1.083       .  S
C1888      C1889   1.401       .  A
C1888      C1891   1.452       .  S
C1889      C1890   1.402       .  A
C1889      H1901   1.083       .  S
C1890      H1902   1.083       .  S
C1891      C1892   1.213       .  T
C1892      C1893   1.452       .  S
C1893      C1894   1.401       .  A
C1893      C1898   1.403       .  A
C1894      C1895   1.401       .  A
C1894      H1903   1.083       .  S
C1895      C1896   1.407       .  A
C1895      H1904   1.083       .  S
C1896      C1897   1.407       .  A
C1897      C1898   1.405       .  A
C1897      H1905   1.083       .  S
C1898      H1906   1.083       .  S
C1907      C1908   1.407       .  A
C1907      C1912   1.407       .  A
C1908      C1909   1.401       .  A
C1908      H1921   1.083       .  S
C1909      C1910   1.401       .  A
C1909      H1922   1.083       .  S
C1910      C1911   1.402       .  A
C1910      C1913   1.449       .  S
C1911      C1912   1.403       .  A
C1911      H1923   1.083       .  S
C1912      H1924   1.083       .  S
C1913      C1914   1.211       .  T
C1914      C1915   1.449       .  S
C1915      C1916   1.401       .  A
C1915      C1920   1.400       .  A
C1916      C1917   1.403       .  A
C1916      H1925   1.083       .  S
C1917      C1918   1.409       .  A
C1917      H1926   1.082       .  S
C1918      C1919   1.409       .  A
C1919      C1920   1.401       .  A
C1919      H1927   1.082       .  S
C1920      H1928   1.083       .  S
C1929      C1930   1.412       .  A
C1929      C1934   1.410       .  A
C1930      C1931   1.401       .  A
C1930      H1943   1.081       .  S
C1931      C1932   1.399       .  A
C1931      H1944   1.083       .  S
C1932      C1933   1.398       .  A
C1932      C1935   1.444       .  S
C1933      C1934   1.400       .  A
C1933      H1945   1.084       .  S
C1934      H1946   1.076       .  S
C1935      C1936   1.209       .  T
C1936      C1937   1.444       .  S
C1937      C1938   1.401       .  A
C1937      C1942   1.401       .  A
C1938      C1939   1.400       .  A
C1938      H1947   1.083       .  S
C1939      C1940   1.406       .  A
C1939      H1948   1.083       .  S
C1940      C1941   1.407       .  A
C1941      C1942   1.401       .  A
C1941      H1949   1.083       .  S
C1942      H1950   1.083       .  S
C1951      C1952   1.412       .  A
C1951      C1956   1.412       .  A
C1952      C1953   1.399       .  A
C1952      H1965   1.077       .  S
C1953      C1954   1.398       .  A
C1953      H1966   1.084       .  S
C1954      C1955   1.399       .  A
C1954      C1957   1.445       .  S
C1955      C1956   1.402       .  A
C1955      H1967   1.083       .  S
C1956      H1968   1.083       .  S
C1957      C1958   1.209       .  T
C1958      C1959   1.445       .  S
C1959      C1960   1.402       .  A
C1959      C1964   1.400       .  A
C1960      C1961   1.403       .  A
C1960      H1969   1.083       .  S
C1961      C1962   1.407       .  A
C1961      H1970   1.083       .  S
C1962      C1963   1.406       .  A
C1963      C1964   1.398       .  A
C1963      H1971   1.083       .  S
C1964      H1972   1.084       .  S
C1973      C1974   1.405       .  A
C1973      C1978   1.410       .  A
C1974      C1975   1.399       .  A
C1974      H1987   1.077       .  S
C1975      C1976   1.400       .  A
C1975      H1988   1.084       .  S
C1976      C1977   1.401       .  A
C1976      C1979   1.448       .  S
C1977      C1978   1.403       .  A
C1977      H1989   1.083       .  S
C1978      H1990   1.083       .  S
C1979      C1980   1.211       .  T
C1980      C1981   1.448       .  S
C1981      C1982   1.402       .  A
C1981      C1986   1.401       .  A
C1982      C1983   1.403       .  A
C1982      H1991   1.083       .  S
C1983      C1984   1.408       .  A
C1983      H1992   1.083       .  S
C1984      C1985   1.407       .  A
C1985      C1986   1.401       .  A
C1985      H1993   1.083       .  S
C1986      H1994   1.084       .  S
C1995      C1996   1.408       .  A
C1995      C2000   1.406       .  A
C1996      C1997   1.398       .  A
C1996      H2009   1.083       .  S
C1997      C1998   1.399       .  A
C1997      H2010   1.084       .  S
C1998      C1999   1.401       .  A
C1998      C2001   1.441       .  S
C1999      C2000   1.400       .  A
C1999      H2011   1.083       .  S
C2000      H2012   1.083       .  S
C2001      C2002   1.207       .  T
C2002      C2003   1.442       .  S
C2003      C2004   1.400       .  A
C2003      C2008   1.400   1_455  A
C2004      C2005   1.399   1_455  A
C2004      H2013   1.084       .  S
C2005      C2006   1.406       .  A
C2005      H2014   1.083       .  S
C2006      C2007   1.406       .  A
C2007      C2008   1.400       .  A
C2007      H2015   1.083       .  S
C2008      H2016   1.083       .  S
C2017      C2018   1.407       .  A
C2017      C2022   1.407       .  A
C2018      C2019   1.402       .  A
C2018      H2031   1.083       .  S
C2019      C2020   1.401       .  A
C2019      H2032   1.083       .  S
C2020      C2021   1.400       .  A
C2020      C2023   1.445       .  S
C2021      C2022   1.400       .  A
C2021      H2033   1.084       .  S
C2022      H2034   1.083       .  S
C2023      C2024   1.209       .  T
C2024      C2025   1.444       .  S
C2025      C2026   1.400       .  A
C2025      C2030   1.402       .  A
C2026      C2027   1.398       .  A
C2026      H2035   1.084       .  S
C2027      C2028   1.406       .  A
C2027      H2036   1.083       .  S
C2028      C2029   1.406       .  A
C2029      C2030   1.402       .  A
C2029      H2037   1.083       .  S
C2030      H2038   1.083       .  S
C2039      C2040   1.406       .  A
C2039      C2044   1.407       .  A
C2040      C2041   1.397       .  A
C2040      H2053   1.083       .  S
C2041      C2042   1.399       .  A
C2041      H2054   1.084       .  S
C2042      C2043   1.402       .  A
C2042      C2045   1.444       .  S
C2043      C2044   1.403       .  A
C2043      H2055   1.083       .  S
C2044      H2056   1.083       .  S
C2045      C2046   1.209       .  T
C2046      C2047   1.444       .  S
C2047      C2048   1.398       .  A
C2047      C2052   1.400       .  A
C2048      C2049   1.399       .  A
C2048      H2057   1.084       .  S
C2049      C2050   1.411       .  A
C2049      H2058   1.082       .  S
C2050      C2051   1.407       .  A
C2051      C2052   1.402       .  A
C2051      H2059   1.075       .  S
C2052      H2060   1.083       .  S
C2061      C2062   1.405       .  A
C2061      C2066   1.406       .  A
C2062      C2063   1.398       .  A
C2062      H2075   1.083       .  S
C2063      C2064   1.399       .  A
C2063      H2076   1.083       .  S
C2064      C2065   1.400       .  A
C2064      C2067   1.439       .  S
C2065      C2066   1.399       .  A
C2065      H2077   1.084       .  S
C2066      H2078   1.083       .  S
C2067      C2068   1.205   1_565  T
C2068      C2069   1.439       .  S
C2069      C2070   1.399       .  A
C2069      C2074   1.400       .  A
C2070      C2071   1.397       .  A
C2070      H2079   1.084       .  S
C2071      C2072   1.405       .  A
C2071      H2080   1.083       .  S
C2072      C2073   1.406       .  A
C2073      C2074   1.399       .  A
C2073      H2081   1.083       .  S
C2074      H2082   1.083       .  S
C2083      C2084   1.407       .  A
C2083      C2088   1.407       .  A
C2084      C2085   1.401       .  A
C2084      H2097   1.083       .  S
C2085      C2086   1.401       .  A
C2085      H2098   1.083       .  S
C2086      C2087   1.402       .  A
C2086      C2089   1.449       .  S
C2087      C2088   1.403       .  A
C2087      H2099   1.083       .  S
C2088      H2100   1.083       .  S
C2089      C2090   1.211       .  T
C2090      C2091   1.448       .  S
C2091      C2092   1.402       .  A
C2091      C2096   1.401       .  A
C2092      C2093   1.403       .  A
C2092      H2101   1.083       .  S
C2093      C2094   1.407       .  A
C2093      H2102   1.083       .  S
C2094      C2095   1.407       .  A
C2095      C2096   1.401       .  A
C2095      H2103   1.083       .  S
C2096      H2104   1.083       .  S
C2105      C2106   1.408       .  A
C2105      C2110   1.406       .  A
C2106      C2107   1.406       .  A
C2106      H2119   1.083       .  S
C2107      C2108   1.404       .  A
C2107      H2120   1.083       .  S
C2108      C2109   1.399       .  A
C2108      C2111   1.448       .  S
C2109      C2110   1.397       .  A
C2109      H2121   1.084       .  S
C2110      H2122   1.083       .  S
C2111      C2112   1.211       .  T
C2112      C2113   1.448       .  S
C2113      C2114   1.401       .  A
C2113      C2118   1.401       .  A
C2114      C2115   1.401       .  A
C2114      H2123   1.083       .  S
C2115      C2116   1.406       .  A
C2115      H2124   1.077       .  S
C2116      C2117   1.408       .  A
C2117      C2118   1.402       .  A
C2117      H2125   1.083       .  S
C2118      H2126   1.083       .  S
C2127      C2128   1.408       .  A
C2127      C2132   1.407       .  A
C2128      C2129   1.405       .  A
C2128      H2141   1.083       .  S
C2129      C2130   1.403       .  A
C2129      H2142   1.083       .  S
C2130      C2131   1.400       .  A
C2130      C2133   1.448       .  S
C2131      C2132   1.398       .  A
C2131      H2143   1.084       .  S
C2132      H2144   1.083   1_455  S
C2133      C2134   1.211       .  T
C2134      C2135   1.448       .  S
C2135      C2136   1.401       .  A
C2135      C2140   1.402       .  A
C2136      C2137   1.400       .  A
C2136      H2145   1.084       .  S
C2137      C2138   1.407       .  A
C2137      H2146   1.083       .  S
C2138      C2139   1.407       .  A
C2139      C2140   1.404       .  A
C2139      H2147   1.083       .  S
C2140      H2148   1.083       .  S
C2149      C2150   1.411       .  A
C2149      C2154   1.407       .  A
C2150      C2151   1.399       .  A
C2150      H2163   1.082       .  S
C2151      C2152   1.398       .  A
C2151      H2164   1.083       .  S
C2152      C2153   1.399       .  A
C2152      C2155   1.443       .  S
C2153      C2154   1.399       .  A
C2153      H2165   1.084       .  S
C2154      H2166   1.077       .  S
C2155      C2156   1.208       .  T
C2156      C2157   1.443       .  S
C2157      C2158   1.400       .  A
C2157      C2162   1.401       .  A
C2158      C2159   1.398       .  A
C2158      H2167   1.084       .  S
C2159      C2160   1.406       .  A
C2159      H2168   1.083       .  S
C2160      C2161   1.406       .  A
C2161      C2162   1.401       .  A
C2161      H2169   1.083       .  S
C2162      H2170   1.083       .  S
C2171      C2172   1.406       .  A
C2171      C2176   1.407       .  A
C2172      C2173   1.402       .  A
C2172      H2185   1.083       .  S
C2173      C2174   1.402       .  A
C2173      H2186   1.083       .  S
C2174      C2175   1.399       .  A
C2174      C2177   1.444   1_554  S
C2175      C2176   1.398       .  A
C2175      H2187   1.084       .  S
C2176      H2188   1.083       .  S
C2177      C2178   1.208       .  T
C2178      C2179   1.444       .  S
C2179      C2180   1.398       .  A
C2179      C2184   1.399       .  A
C2180      C2181   1.399       .  A
C2180      H2189   1.083       .  S
C2181      C2182   1.411       .  A
C2181      H2190   1.083       .  S
C2182      C2183   1.414       .  A
C2183      C2184   1.401       .  A
C2183      H2191   1.077       .  S
C2184      H2192   1.084       .  S
C2193      C2194   1.405       .  A
C2193      C2198   1.407       .  A
C2194      C2195   1.396       .  A
C2194      H2207   1.083       .  S
C2195      C2196   1.399       .  A
C2195      H2208   1.084       .  S
C2196      C2197   1.402       .  A
C2196      C2199   1.443       .  S
C2197      C2198   1.402       .  A
C2197      H2209   1.083       .  S
C2198      H2210   1.083       .  S
C2199      C2200   1.208       .  T
C2200      C2201   1.443       .  S
C2201      C2202   1.398       .  A
C2201      C2206   1.400       .  A
C2202      C2203   1.399       .  A
C2202      H2211   1.084       .  S
C2203      C2204   1.410       .  A
C2203      H2212   1.082       .  S
C2204      C2205   1.407       .  A
C2205      C2206   1.402       .  A
C2205      H2213   1.077       .  S
C2206      H2214   1.083       .  S
C2215      C2216   1.407       .  A
C2215      C2220   1.407   1_455  A
C2216      C2217   1.399       .  A
C2216      H2229   1.083       .  S
C2217      C2218   1.399   1_455  A
C2217      H2230   1.084       .  S
C2218      C2219   1.404       .  A
C2218      C2221   1.448       .  S
C2219      C2220   1.405       .  A
C2219      H2231   1.083       .  S
C2220      H2232   1.083       .  S
C2221      C2222   1.211   1_565  T
C2222      C2223   1.449       .  S
C2223      C2224   1.402       .  A
C2223      C2228   1.401       .  A
C2224      C2225   1.403       .  A
C2224      H2233   1.083   1_655  S
C2225      C2226   1.407       .  A
C2225      H2234   1.083       .  S
C2226      C2227   1.408       .  A
C2227      C2228   1.401       .  A
C2227      H2235   1.083       .  S
C2228      H2236   1.083       .  S
C2237      C2238   1.407       .  A
C2237      C2242   1.406       .  A
C2238      C2239   1.400       .  A
C2238      H2251   1.083       .  S
C2239      C2240   1.401       .  A
C2239      H2252   1.083       .  S
C2240      C2241   1.400       .  A
C2240      C2243   1.442       .  S
C2241      C2242   1.399       .  A
C2241      H2253   1.083       .  S
C2242      H2254   1.083       .  S
C2243      C2244   1.208       .  T
C2244      C2245   1.442       .  S
C2245      C2246   1.401       .  A
C2245      C2250   1.400       .  A
C2246      C2247   1.400       .  A
C2246      H2255   1.083       .  S
C2247      C2248   1.406       .  A
C2247      H2256   1.083       .  S
C2248      C2249   1.407       .  A
C2249      C2250   1.400       .  A
C2249      H2257   1.083       .  S
C2250      H2258   1.084       .  S
C2259      C2260   1.405       .  A
C2259      C2264   1.406       .  A
C2260      C2261   1.398       .  A
C2260      H2273   1.083       .  S
C2261      C2262   1.400       .  A
C2261      H2274   1.084       .  S
C2262      C2263   1.400       .  A
C2262      C2265   1.440       .  S
C2263      C2264   1.399       .  A
C2263      H2275   1.083       .  S
C2264      H2276   1.083       .  S
C2265      C2266   1.206       .  T
C2266      C2267   1.440       .  S
C2267      C2268   1.397       .  A
C2267      C2272   1.396       .  A
C2268      C2269   1.399       .  A
C2268      H2277   1.084       .  S
C2269      C2270   1.414       .  A
C2269      H2278   1.080       .  S
C2270      C2271   1.411       .  A
C2271      C2272   1.397       .  A
C2271      H2279   1.076       .  S
C2272      H2280   1.084       .  S
C2281      C2282   1.413       .  A
C2281      C2286   1.412       .  A
C2282      C2283   1.402       .  A
C2282      H2295   1.077       .  S
C2283      C2284   1.400       .  A
C2283      H2296   1.084       .  S
C2284      C2285   1.398       .  A
C2284      C2287   1.446       .  S
C2285      C2286   1.399       .  A
C2285      H2297   1.083       .  S
C2286      H2298   1.083       .  S
C2287      C2288   1.209       .  T
C2288      C2289   1.445   1_556  S
C2289      C2290   1.402       .  A
C2289      C2294   1.400       .  A
C2290      C2291   1.402       .  A
C2290      H2299   1.083       .  S
C2291      C2292   1.406       .  A
C2291      H2300   1.083       .  S
C2292      C2293   1.407       .  A
C2293      C2294   1.399       .  A
C2293      H2301   1.083       .  S
C2294      H2302   1.084       .  S
C2303      C2304   1.407       .  A
C2303      C2308   1.406       .  A
C2304      C2305   1.405       .  A
C2304      H2317   1.083       .  S
C2305      C2306   1.403       .  A
C2305      H2318   1.083       .  S
C2306      C2307   1.399       .  A
C2306      C2309   1.446       .  S
C2307      C2308   1.397       .  A
C2307      H2319   1.084       .  S
C2308      H2320   1.083       .  S
C2309      C2310   1.210       .  T
C2310      C2311   1.447       .  S
C2311      C2312   1.402       .  A
C2311      C2316   1.400       .  A
C2312      C2313   1.402       .  A
C2312      H2321   1.083       .  S
C2313      C2314   1.408       .  A
C2313      H2322   1.083       .  S
C2314      C2315   1.405       .  A
C2315      C2316   1.400       .  A
C2315      H2323   1.078       .  S
C2316      H2324   1.083       .  S
C2325      C2326   1.407       .  A
C2325      C2330   1.407       .  A
C2326      C2327   1.402       .  A
C2326      H2339   1.083       .  S
C2327      C2328   1.401       .  A
C2327      H2340   1.083       .  S
C2328      C2329   1.401       .  A
C2328      C2331   1.447       .  S
C2329      C2330   1.401       .  A
C2329      H2341   1.083       .  S
C2330      H2342   1.083       .  S
C2331      C2332   1.210       .  T
C2332      C2333   1.447       .  S
C2333      C2334   1.401       .  A
C2333      C2338   1.402       .  A
C2334      C2335   1.400       .  A
C2334      H2343   1.084       .  S
C2335      C2336   1.407       .  A
C2335      H2344   1.083       .  S
C2336      C2337   1.407       .  A
C2337      C2338   1.403       .  A
C2337      H2345   1.083       .  S
C2338      H2346   1.083       .  S
C2347      C2348   1.409       .  A
C2347      C2352   1.412       .  A
C2348      C2349   1.403       .  A
C2348      H2361   1.077       .  S
C2349      C2350   1.401       .  A
C2349      H2362   1.083       .  S
C2350      C2351   1.399       .  A
C2350      C2353   1.448       .  S
C2351      C2352   1.401       .  A
C2351      H2363   1.084       .  S
C2352      H2364   1.081       .  S
C2353      C2354   1.211       .  T
C2354      C2355   1.448       .  S
C2355      C2356   1.403   1_455  A
C2355      C2360   1.400       .  A
C2356      C2357   1.405       .  A
C2356      H2365   1.083       .  S
C2357      C2358   1.407       .  A
C2357      H2366   1.083       .  S
C2358      C2359   1.407       .  A
C2359      C2360   1.398   1_655  A
C2359      H2367   1.083       .  S
C2360      H2368   1.084       .  S
C2369      C2370   1.405       .  A
C2369      C2374   1.407       .  A
C2370      C2371   1.398       .  A
C2370      H2383   1.083       .  S
C2371      C2372   1.400       .  A
C2371      H2384   1.083       .  S
C2372      C2373   1.400       .  A
C2372      C2375   1.440       .  S
C2373      C2374   1.399       .  A
C2373      H2385   1.083       .  S
C2374      H2386   1.083       .  S
C2375      C2376   1.206   1_645  T
C2376      C2377   1.440       .  S
C2377      C2378   1.400       .  A
C2377      C2382   1.400       .  A
C2378      C2379   1.398       .  A
C2378      H2387   1.083       .  S
C2379      C2380   1.406       .  A
C2379      H2388   1.083       .  S
C2380      C2381   1.406       .  A
C2381      C2382   1.399       .  A
C2381      H2389   1.083       .  S
C2382      H2390   1.083       .  S
C2391      C2392   1.408       .  A
C2391      C2396   1.407       .  A
C2392      C2393   1.405       .  A
C2392      H2405   1.083       .  S
C2393      C2394   1.403       .  A
C2393      H2406   1.083       .  S
C2394      C2395   1.400       .  A
C2394      C2397   1.448       .  S
C2395      C2396   1.399       .  A
C2395      H2407   1.084       .  S
C2396      H2408   1.083       .  S
C2397      C2398   1.211       .  T
C2398      C2399   1.448       .  S
C2399      C2400   1.402       .  A
C2399      C2404   1.401       .  A
C2400      C2401   1.403       .  A
C2400      H2409   1.083       .  S
C2401      C2402   1.407       .  A
C2401      H2410   1.083       .  S
C2402      C2403   1.407       .  A
C2403      C2404   1.401       .  A
C2403      H2411   1.083       .  S
C2404      H2412   1.084       .  S
C2413      C2414   1.407   1_455  A
C2413      C2418   1.407       .  A
C2414      C2415   1.397       .  A
C2414      H2427   1.083       .  S
C2415      C2416   1.399       .  A
C2415      H2428   1.084       .  S
C2416      C2417   1.402   1_655  A
C2416      C2419   1.444       .  S
C2417      C2418   1.404       .  A
C2417      H2429   1.083       .  S
C2418      H2430   1.083       .  S
C2419      C2420   1.209       .  T
C2420      C2421   1.444       .  S
C2421      C2422   1.400       .  A
C2421      C2426   1.401       .  A
C2422      C2423   1.399       .  A
C2422      H2431   1.084       .  S
C2423      C2424   1.407       .  A
C2423      H2432   1.082       .  S
C2424      C2425   1.407       .  A
C2425      C2426   1.400       .  A
C2425      H2433   1.083       .  S
C2426      H2434   1.083       .  S
C2435      C2436   1.407       .  A
C2435      C2440   1.407       .  A
C2436      C2437   1.400       .  A
C2436      H2449   1.083       .  S
C2437      C2438   1.401       .  A
C2437      H2450   1.083       .  S
C2438      C2439   1.403       .  A
C2438      C2441   1.449       .  S
C2439      C2440   1.404       .  A
C2439      H2451   1.083       .  S
C2440      H2452   1.083       .  S
C2441      C2442   1.212       .  T
C2442      C2443   1.450       .  S
C2443      C2444   1.400       .  A
C2443      C2448   1.399       .  A
C2444      C2445   1.403       .  A
C2444      H2453   1.083       .  S
C2445      C2446   1.413       .  A
C2445      H2454   1.083       .  S
C2446      C2447   1.413       .  A
C2447      C2448   1.402       .  A
C2447      H2455   1.077       .  S
C2448      H2456   1.084       .  S
C2457      C2458   1.407       .  A
C2457      C2462   1.407       .  A
C2458      C2459   1.402       .  A
C2458      H2471   1.083       .  S
C2459      C2460   1.402       .  A
C2459      H2472   1.083       .  S
C2460      C2461   1.401       .  A
C2460      C2463   1.449       .  S
C2461      C2462   1.402       .  A
C2461      H2473   1.083       .  S
C2462      H2474   1.083       .  S
C2463      C2464   1.211       .  T
C2464      C2465   1.449       .  S
C2465      C2466   1.403       .  A
C2465      C2470   1.399       .  A
C2466      C2467   1.405       .  A
C2466      H2475   1.083       .  S
C2467      C2468   1.407       .  A
C2467      H2476   1.083       .  S
C2468      C2469   1.408       .  A
C2469      C2470   1.399       .  A
C2469      H2477   1.083       .  S
C2470      H2478   1.084       .  S
C2479      C2480   1.408       .  A
C2479      C2484   1.407       .  A
C2480      C2481   1.406       .  A
C2480      H2493   1.083       .  S
C2481      C2482   1.404       .  A
C2481      H2494   1.083       .  S
C2482      C2483   1.400       .  A
C2482      C2485   1.449       .  S
C2483      C2484   1.399       .  A
C2483      H2495   1.084       .  S
C2484      H2496   1.083       .  S
C2485      C2486   1.212       .  T
C2486      C2487   1.449       .  S
C2487      C2488   1.402       .  A
C2487      C2492   1.402       .  A
C2488      C2489   1.402       .  A
C2488      H2497   1.083       .  S
C2489      C2490   1.406       .  A
C2489      H2498   1.083       .  S
C2490      C2491   1.407       .  A
C2491      C2492   1.402       .  A
C2491      H2499   1.083       .  S
C2492      H2500   1.083       .  S
C2501      C2502   1.406       .  A
C2501      C2506   1.407       .  A
C2502      C2503   1.401       .  A
C2502      H2515   1.083       .  S
C2503      C2504   1.401       .  A
C2503      H2516   1.083       .  S
C2504      C2505   1.400       .  A
C2504      C2507   1.444       .  S
C2505      C2506   1.400       .  A
C2505      H2517   1.083       .  S
C2506      H2518   1.083       .  S
C2507      C2508   1.209       .  T
C2508      C2509   1.444       .  S
C2509      C2510   1.400       .  A
C2509      C2514   1.401       .  A
C2510      C2511   1.400       .  A
C2510      H2519   1.083       .  S
C2511      C2512   1.407       .  A
C2511      H2520   1.083       .  S
C2512      C2513   1.407       .  A
C2513      C2514   1.400       .  A
C2513      H2521   1.083       .  S
C2514      H2522   1.083       .  S
C2523      C2524   1.407       .  A
C2523      C2528   1.407       .  A
C2524      C2525   1.404       .  A
C2524      H2537   1.083       .  S
C2525      C2526   1.402       .  A
C2525      H2538   1.083       .  S
C2526      C2527   1.402       .  A
C2526      C2529   1.450       .  S
C2527      C2528   1.401       .  A
C2527      H2539   1.083       .  S
C2528      H2540   1.083       .  S
C2529      C2530   1.212       .  T
C2530      C2531   1.450       .  S
C2531      C2532   1.400       .  A
C2531      C2536   1.403       .  A
C2532      C2533   1.400       .  A
C2532      H2541   1.084       .  S
C2533      C2534   1.407       .  A
C2533      H2542   1.083       .  S
C2534      C2535   1.408       .  A
C2535      C2536   1.405       .  A
C2535      H2543   1.083       .  S
C2536      H2544   1.083       .  S
C2545      C2546   1.408       .  A
C2545      C2550   1.407       .  A
C2546      C2547   1.402       .  A
C2546      H2559   1.083       .  S
C2547      C2548   1.401       .  A
C2547      H2560   1.083       .  S
C2548      C2549   1.402       .  A
C2548      C2551   1.451       .  S
C2549      C2550   1.402       .  A
C2549      H2561   1.083       .  S
C2550      H2562   1.083       .  S
C2551      C2552   1.213       .  T
C2552      C2553   1.451       .  S
C2553      C2554   1.403       .  A
C2553      C2558   1.401       .  A
C2554      C2555   1.405       .  A
C2554      H2563   1.083       .  S
C2555      C2556   1.408       .  A
C2555      H2564   1.083       .  S
C2556      C2557   1.408       .  A
C2557      C2558   1.401       .  A
C2557      H2565   1.083       .  S
C2558      H2566   1.083       .  S
C2567      C2568   1.407       .  A
C2567      C2572   1.407       .  A
C2568      C2569   1.401       .  A
C2568      H2581   1.083       .  S
C2569      C2570   1.401       .  A
C2569      H2582   1.083       .  S
C2570      C2571   1.404       .  A
C2570      C2573   1.452       .  S
C2571      C2572   1.405       .  A
C2571      H2583   1.083       .  S
C2572      H2584   1.083       .  S
C2573      C2574   1.214   1_565  T
C2574      C2575   1.453       .  S
C2575      C2576   1.402       .  A
C2575      C2580   1.403       .  A
C2576      C2577   1.403       .  A
C2576      H2585   1.083       .  S
C2577      C2578   1.408       .  A
C2577      H2586   1.083       .  S
C2578      C2579   1.408       .  A
C2579      C2580   1.405       .  A
C2579      H2587   1.083       .  S
C2580      H2588   1.083       .  S
C2589      C2590   1.407       .  A
C2589      C2594   1.407       .  A
C2590      C2591   1.402       .  A
C2590      H2603   1.083       .  S
C2591      C2592   1.401       .  A
C2591      H2604   1.083       .  S
C2592      C2593   1.401       .  A
C2592      C2595   1.446       .  S
C2593      C2594   1.401       .  A
C2593      H2605   1.084       .  S
C2594      H2606   1.083       .  S
C2595      C2596   1.210       .  T
C2596      C2597   1.446       .  S
C2597      C2598   1.400       .  A
C2597      C2602   1.402       .  A
C2598      C2599   1.399       .  A
C2598      H2607   1.083       .  S
C2599      C2600   1.407       .  A
C2599      H2608   1.083       .  S
C2600      C2601   1.406       .  A
C2601      C2602   1.402       .  A
C2601      H2609   1.083       .  S
C2602      H2610   1.083       .  S
C2611      C2612   1.409       .  A
C2611      C2616   1.409       .  A
C2612      C2613   1.406       .  A
C2612      H2625   1.082       .  S
C2613      C2614   1.404       .  A
C2613      H2626   1.083       .  S
C2614      C2615   1.398       .  A
C2614      C2617   1.448       .  S
C2615      C2616   1.398       .  A
C2615      H2627   1.084       .  S
C2616      H2628   1.082       .  S
C2617      C2618   1.211       .  T
C2618      C2619   1.448       .  S
C2619      C2620   1.402       .  A
C2619      C2624   1.402       .  A
C2620      C2621   1.401       .  A
C2620      H2629   1.083       .  S
C2621      C2622   1.407       .  A
C2621      H2630   1.083       .  S
C2622      C2623   1.407       .  A
C2623      C2624   1.402       .  A
C2623      H2631   1.083       .  S
C2624      H2632   1.083       .  S
C2633      C2634   1.412       .  A
C2633      C2638   1.410       .  A
C2634      C2635   1.398       .  A
C2634      H2647   1.080       .  S
C2635      C2636   1.397       .  A
C2635      H2648   1.084       .  S
C2636      C2637   1.397       .  A
C2636      C2639   1.439       .  S
C2637      C2638   1.398       .  A
C2637      H2649   1.084       .  S
C2638      H2650   1.077       .  S
C2639      C2640   1.205       .  T
C2640      C2641   1.439       .  S
C2641      C2642   1.400       .  A
C2641      C2646   1.399       .  A
C2642      C2643   1.399       .  A
C2642      H2651   1.083       .  S
C2643      C2644   1.406       .  A
C2643      H2652   1.083       .  S
C2644      C2645   1.406       .  A
C2645      C2646   1.398       .  A
C2645      H2653   1.083       .  S
C2646      H2654   1.084       .  S
C2655      C2656   1.412       .  A
C2655      C2660   1.412       .  A
C2656      C2657   1.399       .  A
C2656      H2669   1.083       .  S
C2657      C2658   1.398       .  A
C2657      H2670   1.083       .  S
C2658      C2659   1.399       .  A
C2658      C2661   1.443       .  S
C2659      C2660   1.400       .  A
C2659      H2671   1.084       .  S
C2660      H2672   1.077       .  S
C2661      C2662   1.208       .  T
C2662      C2663   1.443       .  S
C2663      C2664   1.402       .  A
C2663      C2668   1.399       .  A
C2664      C2665   1.403       .  A
C2664      H2673   1.083       .  S
C2665      C2666   1.407       .  A
C2665      H2674   1.083       .  S
C2666      C2667   1.406       .  A
C2667      C2668   1.397       .  A
C2667      H2675   1.083       .  S
C2668      H2676   1.084       .  S
C2677      C2678   1.407       .  A
C2677      C2682   1.406       .  A
C2678      C2679   1.400       .  A
C2678      H2691   1.083       .  S
C2679      C2680   1.400       .  A
C2679      H2692   1.083       .  S
C2680      C2681   1.401       .  A
C2680      C2683   1.445       .  S
C2681      C2682   1.401       .  A
C2681      H2693   1.083       .  S
C2682      H2694   1.083       .  S
C2683      C2684   1.209       .  T
C2684      C2685   1.445       .  S
C2685      C2686   1.400       .  A
C2685      C2690   1.401       .  A
C2686      C2687   1.399       .  A
C2686      H2695   1.084       .  S
C2687      C2688   1.407       .  A
C2687      H2696   1.083       .  S
C2688      C2689   1.408       .  A
C2689      C2690   1.401       .  A
C2689      H2697   1.083       .  S
C2690      H2698   1.083       .  S
C2699      C2700   1.406       .  A
C2699      C2704   1.409       .  A
C2700      C2701   1.400       .  A
C2700      H2713   1.078       .  S
C2701      C2702   1.400       .  A
C2701      H2714   1.083       .  S
C2702      C2703   1.399       .  A
C2702      C2705   1.444       .  S
C2703      C2704   1.399       .  A
C2703      H2715   1.083       .  S
C2704      H2716   1.082       .  S
C2705      C2706   1.208       .  T
C2706      C2707   1.444       .  S
C2707      C2708   1.403       .  A
C2707      C2712   1.398       .  A
C2708      C2709   1.405       .  A
C2708      H2717   1.083       .  S
C2709      C2710   1.407       .  A
C2709      H2718   1.083       .  S
C2710      C2711   1.406       .  A
C2711      C2712   1.396       .  A
C2711      H2719   1.083       .  S
C2712      H2720   1.084       .  S
