geometry optimzed in LAMMPS
_audit_creation_date              2020-11-30 
_audit_creation_method            'lammps2cif' 
_symmetry_space_group_name_H-M    'P1' 
_symmetry_Int_Tables_number       1 
_symmetry_cell_setting            triclinic 
loop_ 
_symmetry_equiv_pos_as_xyz 
  x,y,z 
_cell_length_a                    57.65560459 
_cell_length_b                    57.71317437551328 
_cell_length_c                    57.77413673927973 
_cell_angle_alpha                 89.96611669361637 
_cell_angle_beta                  89.91174373826982 
_cell_angle_gamma                 89.96288993107052 
loop_ 
_atom_site_label 
_atom_site_type_symbol 
_atom_site_fract_x 
_atom_site_fract_y 
_atom_site_fract_z 
_atom_site_charge 
N1          N  0.53634196  0.10644464  0.50039165    -0.36800
N2          N  0.50157806  0.10497402  0.46319031    -0.57300
N3          N  0.46340702  0.10642713  0.49666484    -0.36800
N4          N  0.49821082  0.10786522  0.53375584    -0.57300
C5          C  0.54957924  0.09895888  0.48242331     0.26800
C6          C  0.54774385  0.10081060  0.52019098     0.26800
C7          C  0.45194070  0.09954368  0.47734108     0.26800
C8          C  0.45045608  0.09969306  0.51513243     0.26800
C9          C  0.52113609  0.10468229  0.45015919     0.35400
C10         C  0.48350142  0.10569882  0.44824830     0.35400
C11         C  0.51625920  0.10956886  0.54860950     0.35400
C12         C  0.47866511  0.10871035  0.54672489     0.35400
C13         C  0.57016413  0.08984790  0.49093761    -0.22100
C14         C  0.56897079  0.09094435  0.51463553    -0.22100
C15         C  0.43093088  0.08963087  0.48362418    -0.22100
C16         C  0.42999548  0.08972929  0.50733535    -0.22100
C17         C  0.51544880  0.10585807  0.42688697    -0.23100
C18         C  0.49168681  0.10657467  0.42567947    -0.23100
C19         C  0.50809312  0.11238949  0.57100562    -0.23100
C20         C  0.48435348  0.11179603  0.56982965    -0.23100
C21         C  0.54355145  0.09924350  0.45855632    -0.18500
C22         C  0.53930357  0.10315207  0.54321030    -0.18500
C23         C  0.45659443  0.10154871  0.53889247    -0.18500
C24         C  0.46018921  0.10070238  0.45419058    -0.18500
H25         H  0.58441649  0.08254718  0.48114022     0.14400
H26         H  0.58208457  0.08463302  0.52645645     0.14400
H27         H  0.41783850  0.08240587  0.47232737     0.14400
H28         H  0.41593623  0.08277511  0.51764350     0.14400
H29         H  0.52716654  0.10497254  0.41225639     0.12700
H30         H  0.48153857  0.10622219  0.40993202     0.12700
H31         H  0.51822377  0.11302660  0.58675307     0.12700
H32         H  0.47272035  0.11198143  0.58453604     0.12700
H33         H  0.52067689  0.11526951  0.49917790     0.26000
H34         H  0.47891440  0.11558548  0.49717633     0.26000
N35         N  0.14184217  0.49535472  0.50261273    -0.36800
N36         N  0.14080870  0.45750438  0.46850762    -0.57300
N37         N  0.13972019  0.42245084  0.50532335    -0.36800
N38         N  0.14003860  0.46032263  0.53942476    -0.57300
C39         C  0.13548344  0.50717192  0.48328672     0.26800
C40         C  0.13615361  0.50880803  0.52105029     0.26800
C41         C  0.13383324  0.40926899  0.48677875     0.26800
C42         C  0.13269390  0.41084503  0.52455558     0.26800
C43         C  0.14112008  0.47581407  0.45383894     0.35400
C44         C  0.14108725  0.43819931  0.45519164     0.35400
C45         C  0.14113671  0.47958997  0.55276118     0.35400
C46         C  0.13894357  0.44203992  0.55409396     0.35400
C47         C  0.12710825  0.52882525  0.48953756    -0.22100
C48         C  0.12758970  0.52988240  0.51321003    -0.22100
C49         C  0.12447610  0.38848111  0.49446811    -0.22100
C50         C  0.12371961  0.38949284  0.51816810    -0.22100
C51         C  0.14237767  0.46809512  0.43116592    -0.23100
C52         C  0.14241333  0.44434619  0.43201307    -0.23100
C53         C  0.14150663  0.47340894  0.57595675    -0.23100
C54         C  0.14008205  0.44970524  0.57679655    -0.23100
C55         C  0.13584220  0.49891182  0.46013198    -0.18500
C56         C  0.13685984  0.50240444  0.54480657    -0.18500
C57         C  0.13292124  0.41914630  0.54769662    -0.18500
C58         C  0.13519572  0.41571045  0.46304919    -0.18500
H59         H  0.12064735  0.54232892  0.47824235     0.14400
H60         H  0.12150387  0.54434056  0.52349153     0.14400
H61         H  0.11809895  0.37426546  0.48405665     0.14400
H62         H  0.11665568  0.37621239  0.52937796     0.14400
H63         H  0.14187342  0.47849854  0.41557737     0.12700
H64         H  0.14186376  0.43291980  0.41717436     0.12700
H65         H  0.14127616  0.48488729  0.59076838     0.12700
H66         H  0.13868072  0.43936578  0.59237659     0.12700
H67         H  0.14978673  0.47921062  0.50319529     0.26000
H68         H  0.14820451  0.43830319  0.50488230     0.26000
N69         N  0.49394596  0.82612068  0.53682093    -0.36800
N70         N  0.46142180  0.82619402  0.49796086    -0.57300
N71         N  0.49951919  0.82733805  0.46432380    -0.36800
N72         N  0.53205950  0.82695684  0.50295645    -0.57300
C73         C  0.47401034  0.83252090  0.54764679     0.26800
C74         C  0.51181258  0.83345186  0.55024595     0.26800
C75         C  0.48152679  0.83438217  0.45092240     0.26800
C76         C  0.51931878  0.83400671  0.45344394     0.26800
C77         C  0.44607460  0.82455903  0.51563080     0.35400
C78         C  0.44890411  0.82576552  0.47816417     0.35400
C79         C  0.54454949  0.82606305  0.52275582     0.35400
C80         C  0.54746715  0.82610011  0.48526250     0.35400
C81         C  0.47933394  0.84271110  0.56872776    -0.22100
C82         C  0.50304643  0.84327035  0.57037269    -0.22100
C83         C  0.49011129  0.84443521  0.43081642    -0.22100
C84         C  0.51381572  0.84422200  0.43241717    -0.22100
C85         C  0.42378726  0.82222456  0.50696494    -0.23100
C86         C  0.42557133  0.82302973  0.48327884    -0.23100
C87         C  0.56793933  0.82384936  0.51755452    -0.23100
C88         C  0.56977085  0.82382851  0.49385969    -0.23100
C89         C  0.45110020  0.83058462  0.53879541    -0.18500
C90         C  0.53584824  0.83232507  0.54479595    -0.18500
C91         C  0.54227277  0.83197575  0.46207471    -0.18500
C92         C  0.45752078  0.83258385  0.45627393    -0.18500
H93         H  0.46738002  0.84962678  0.58143626     0.14400
H94         H  0.51270166  0.85062101  0.58464040     0.14400
H95         H  0.48035412  0.85158731  0.41650588     0.14400
H96         H  0.52562632  0.85129287  0.41966263     0.14400
H97         H  0.40776056  0.82172908  0.51673979     0.12700
H98         H  0.41118661  0.82316964  0.47126674     0.12700
H99         H  0.58233380  0.82380133  0.52954981     0.12700
H100        H  0.58580741  0.82374579  0.48408952     0.12700
H101        H  0.49527696  0.81691725  0.52140923     0.26000
H102        H  0.49838042  0.81788191  0.47959944     0.26000
N103        N  0.85802197  0.42746244  0.50014282    -0.36800
N104        N  0.85893219  0.46515734  0.53391209    -0.57300
N105        N  0.85897738  0.50058177  0.49739651    -0.36800
N106        N  0.85827148  0.46284024  0.46353009    -0.57300
C107        C  0.86466547  0.41575328  0.51942497     0.26800
C108        C  0.86462037  0.41454459  0.48164936     0.26800
C109        C  0.86619653  0.51326146  0.51580814     0.26800
C110        C  0.86580178  0.51206309  0.47803973     0.26800
C111        C  0.85775737  0.44690066  0.54859112     0.35400
C112        C  0.85818444  0.48448134  0.54715208     0.35400
C113        C  0.85723793  0.44354137  0.45026488     0.35400
C114        C  0.85776007  0.48114418  0.44886376     0.35400
C115        C  0.87418506  0.39460790  0.51308538    -0.22100
C116        C  0.87413007  0.39383181  0.48935632    -0.22100
C117        C  0.87627713  0.53365189  0.50801547    -0.22100
C118        C  0.87601213  0.53291202  0.48428836    -0.22100
C119        C  0.85544026  0.45468124  0.57115987    -0.23100
C120        C  0.85569537  0.47843478  0.57025652    -0.23100
C121        C  0.85521566  0.44969222  0.42713948    -0.23100
C122        C  0.85555769  0.47343846  0.42626396    -0.23100
C123        C  0.86350477  0.42385640  0.54258490    -0.18500
C124        C  0.86330987  0.42106495  0.45797421    -0.18500
C125        C  0.86434168  0.50394873  0.45488527    -0.18500
C126        C  0.86489219  0.50675744  0.53947400    -0.18500
H127        H  0.88111846  0.38132280  0.52435963     0.14400
H128        H  0.88095464  0.37978962  0.47896329     0.14400
H129        H  0.88367645  0.54742541  0.51834252     0.14400
H130        H  0.88321229  0.54600206  0.47294109     0.14400
H131        H  0.85514250  0.44429642  0.58676768     0.12700
H132        H  0.85567367  0.48991364  0.58506522     0.12700
H133        H  0.85517100  0.43827246  0.41228987     0.12700
H134        H  0.85582521  0.48382277  0.41065468     0.12700
H135        H  0.84917049  0.44314790  0.49962355     0.26000
H136        H  0.84968030  0.48516957  0.49802100     0.26000
N137        N  0.53800532  0.46332175  0.14020876    -0.36800
N138        N  0.50145682  0.49874260  0.14088028    -0.57300
N139        N  0.46495855  0.46351811  0.14283780    -0.36800
N140        N  0.50162623  0.42814011  0.14215425    -0.57300
C141        C  0.54995079  0.48208979  0.13255250     0.26800
C142        C  0.54999372  0.44425713  0.13334034     0.26800
C143        C  0.45251564  0.48238913  0.13626240     0.26800
C144        C  0.45273308  0.44454627  0.13621669     0.26800
C145        C  0.52033207  0.51269218  0.14070161     0.35400
C146        C  0.48269727  0.51278716  0.14248989     0.35400
C147        C  0.52043502  0.41411201  0.14285381     0.35400
C148        C  0.48279481  0.41424005  0.14363425     0.35400
C149        C  0.57030965  0.47483642  0.12194347    -0.22100
C150        C  0.57033503  0.45108726  0.12244024    -0.22100
C151        C  0.43161998  0.47524628  0.12674160    -0.22100
C152        C  0.43177491  0.45149461  0.12668185    -0.22100
C153        C  0.51355217  0.53562170  0.14299147    -0.23100
C154        C  0.48976317  0.53568181  0.14412915    -0.23100
C155        C  0.51349790  0.39128852  0.14570035    -0.23100
C156        C  0.48969742  0.39136926  0.14615499    -0.23100
C157        C  0.54285280  0.50560774  0.13398737    -0.18500
C158        C  0.54291453  0.42080278  0.13570628    -0.18500
C159        C  0.46008557  0.42109201  0.13753800    -0.18500
C160        C  0.45972466  0.50590229  0.13738966    -0.18500
H161        H  0.58358891  0.48551278  0.11407585     0.14400
H162        H  0.58364395  0.44010169  0.11505316     0.14400
H163        H  0.41788570  0.48601502  0.11985271     0.14400
H164        H  0.41816407  0.44059419  0.11979485     0.14400
H165        H  0.52453864  0.55081504  0.14240578     0.12700
H166        H  0.47883297  0.55093601  0.14450852     0.12700
H167        H  0.52439861  0.37601031  0.14571180     0.12700
H168        H  0.47869736  0.37618021  0.14660869     0.12700
H169        H  0.52287875  0.46354115  0.15002439     0.26000
H170        H  0.48067795  0.46358873  0.15163422     0.26000
N171        N  0.45941459  0.46336440  0.86117860    -0.36800
N172        N  0.49552843  0.49910590  0.85945957    -0.57300
N173        N  0.53243758  0.46381790  0.85878393    -0.36800
N174        N  0.49631513  0.42810963  0.86102796    -0.57300
C175        C  0.44694706  0.48226205  0.86765486     0.26800
C176        C  0.44719834  0.44440453  0.86788239     0.26800
C177        C  0.54489230  0.48299620  0.86429554     0.26800
C178        C  0.54538477  0.44514195  0.86499066     0.26800
C179        C  0.47658421  0.51298543  0.85972241     0.35400
C180        C  0.51422614  0.51323064  0.85826408     0.35400
C181        C  0.47758484  0.41395521  0.86134282     0.35400
C182        C  0.51526365  0.41420708  0.86067954     0.35400
C183        C  0.42597958  0.47514070  0.87709866    -0.22100
C184        C  0.42612496  0.45138196  0.87721862    -0.22100
C185        C  0.56647405  0.47633547  0.87258153    -0.22100
C186        C  0.56677885  0.45259328  0.87302422    -0.22100
C187        C  0.48328609  0.53597631  0.85785374    -0.23100
C188        C  0.50704892  0.53612944  0.85691732    -0.23100
C189        C  0.48473231  0.39101276  0.86048273    -0.23100
C190        C  0.50850615  0.39118360  0.86010522    -0.23100
C191        C  0.45411412  0.50579562  0.86646128    -0.18500
C192        C  0.45472448  0.42096252  0.86703385    -0.18500
C193        C  0.53826603  0.42157121  0.86503859    -0.18500
C194        C  0.53722715  0.50639883  0.86339870    -0.18500
H195        H  0.41217158  0.48594033  0.88382314     0.14400
H196        H  0.41246710  0.44050138  0.88409800     0.14400
H197        H  0.58040477  0.48744129  0.87842679     0.14400
H198        H  0.58096143  0.44204745  0.87932548     0.14400
H199        H  0.47229053  0.55116145  0.85864722     0.12700
H200        H  0.51785712  0.55145669  0.85688100     0.12700
H201        H  0.47398153  0.37567817  0.86149077     0.12700
H202        H  0.51959412  0.37605069  0.86068855     0.12700
H203        H  0.47517855  0.46336152  0.85247143     0.26000
H204        H  0.51618470  0.46351381  0.85107606     0.26000
N205        N  0.99889043  0.60769846  0.03168556    -0.36800
N206        N  0.03411731  0.60761736  0.99545777    -0.57300
N207        N  0.99890526  0.60566391  0.95862270    -0.36800
N208        N  0.96365155  0.60598435  0.99478309    -0.57300
C209        C  0.01798955  0.60162284  0.04404888     0.26800
C210        C  0.98011430  0.59998480  0.04362489     0.26800
C211        C  0.01797121  0.59826340  0.94700021     0.26800
C212        C  0.98014651  0.59843530  0.94643886     0.26800
C213        C  0.04812750  0.60970474  0.01412047     0.35400
C214        C  0.04807281  0.60778741  0.97661444     0.35400
C215        C  0.94964777  0.60676232  0.01358207     0.35400
C216        C  0.94961245  0.60640123  0.97600828     0.35400
C217        C  0.01113583  0.59116171  0.06457139    -0.22100
C218        C  0.98734966  0.59010677  0.06429016    -0.22100
C219        C  0.01123143  0.58759667  0.92656720    -0.22100
C220        C  0.98746170  0.58776098  0.92618189    -0.22100
C221        C  0.07097392  0.61213791  0.00701318    -0.23100
C222        C  0.07094828  0.61084670  0.98331502    -0.23100
C223        C  0.92668340  0.60848938  0.00666782    -0.23100
C224        C  0.92666611  0.60827750  0.98292861    -0.23100
C225        C  0.04149121  0.60403342  0.03699620    -0.18500
C226        C  0.95662856  0.60078619  0.03627581    -0.18500
C227        C  0.95659667  0.59999239  0.95344165    -0.18500
C228        C  0.04132415  0.59998429  0.95446088    -0.18500
H229        H  0.02215056  0.58430570  0.07810177     0.14400
H230        H  0.97663387  0.58235519  0.07759959     0.14400
H231        H  0.02228219  0.57994653  0.91347188     0.14400
H232        H  0.97679667  0.58017927  0.91277496     0.14400
H233        H  0.08624355  0.61291500  0.01786684     0.12700
H234        H  0.08620372  0.61050280  0.97237952     0.12700
H235        H  0.91142627  0.60825885  0.01760834     0.12700
H236        H  0.91141208  0.60784769  0.97203424     0.12700
H237        H  0.99862780  0.61698551  0.01625202     0.26000
H238        H  0.99873688  0.61537617  0.97377110     0.26000
N239        N  0.64504784  0.96366778  0.03850086    -0.36800
N240        N  0.64120887  0.92692354  0.00402689    -0.57300
N241        N  0.64191733  0.96056594  0.96570704    -0.36800
N242        N  0.64587941  0.99720569  0.99993159    -0.57300
C243        C  0.63739656  0.94591141  0.05192671     0.26800
C244        C  0.63953789  0.98359840  0.04968509     0.26800
C245        C  0.63346113  0.94151327  0.95488031     0.26800
C246        C  0.63549620  0.97925158  0.95290662     0.26800
C247        C  0.64186953  0.91373976  0.02343111     0.35400
C248        C  0.64071885  0.91210290  0.98588307     0.35400
C249        C  0.64843597  0.01180836  0.01802769     0.35400
C250        C  0.64700058  0.01031695  0.98052307     0.35400
C251        C  0.62844116  0.95469969  0.07243922    -0.22100
C252        C  0.62970328  0.97836093  0.07099098    -0.22100
C253        C  0.62271015  0.94810659  0.93443026    -0.22100
C254        C  0.62400237  0.97178592  0.93318199    -0.22100
C255        C  0.64251351  0.89048386  0.01754104    -0.23100
C256        C  0.64186015  0.88944471  0.99381010    -0.23100
C257        C  0.65213478  0.03416220  0.01004775    -0.23100
C258        C  0.65121552  0.03322782  0.98632997    -0.23100
C259        C  0.63703881  0.92203918  0.04595490    -0.18500
C260        C  0.64188523  0.00646998  0.04097371    -0.18500
C261        C  0.63899442  0.00294605  0.95862934    -0.18500
C262        C  0.63442413  0.91832649  0.96304007    -0.18500
H263        H  0.62101844  0.94511806  0.08675338     0.14400
H264        H  0.62343020  0.99035903  0.08396737     0.14400
H265        H  0.61429405  0.93705867  0.92185803     0.14400
H266        H  0.61685447  0.98230005  0.91940899     0.14400
H267        H  0.64202354  0.87578371  0.02917697     0.12700
H268        H  0.64073644  0.87376246  0.98360451     0.12700
H269        H  0.65354200  0.04977598  0.02032668     0.12700
H270        H  0.65182938  0.04800058  0.97480484     0.12700
H271        H  0.65370283  0.96231297  0.02275772     0.26000
H272        H  0.65206921  0.96066128  0.98056650     0.26000
N273        N  0.03704955  0.32757981  0.99925300    -0.36800
N274        N  0.00207334  0.32279436  0.96251177    -0.57300
N275        N  0.96700889  0.32512159  0.99934752    -0.36800
N276        N  0.00237192  0.32789807  0.03602464    -0.57300
C277        C  0.05060315  0.32329220  0.98063031     0.26800
C278        C  0.05073354  0.32673810  0.01822998     0.26800
C279        C  0.95316910  0.32356062  0.98051625     0.26800
C280        C  0.95322049  0.32502129  0.01831304     0.26800
C281        C  0.02094648  0.32831310  0.94963406     0.35400
C282        C  0.98331686  0.32884599  0.94972781     0.35400
C283        C  0.02095400  0.33560362  0.04812647     0.35400
C284        C  0.98334845  0.33383842  0.04844790     0.35400
C285        C  0.07314857  0.31919848  0.98790221    -0.22100
C286        C  0.07323845  0.32139938  0.01164613    -0.22100
C287        C  0.93030124  0.32132875  0.98766318    -0.22100
C288        C  0.93033701  0.32215868  0.01146310    -0.22100
C289        C  0.01410701  0.33646490  0.92811308    -0.23100
C290        C  0.99033696  0.33682161  0.92818506    -0.23100
C291        C  0.01379631  0.34522775  0.06889787    -0.23100
C292        C  0.99002594  0.34403253  0.06915910    -0.23100
C293        C  0.04424339  0.32777072  0.95744641    -0.18500
C294        C  0.04427031  0.33472162  0.04043301    -0.18500
C295        C  0.96000461  0.33185566  0.04088300    -0.18500
C296        C  0.95996564  0.32877977  0.95752001    -0.18500
H297        H  0.08821043  0.31635599  0.97705893     0.14400
H298        H  0.08836796  0.32045900  0.02267422     0.14400
H299        H  0.91501845  0.32077020  0.97682243     0.14400
H300        H  0.91507411  0.32236152  0.02239847     0.14400
H301        H  0.02508844  0.34244924  0.91412369     0.12700
H302        H  0.97947858  0.34308033  0.91424720     0.12700
H303        H  0.02453987  0.35285569  0.08221552     0.12700
H304        H  0.97890302  0.35074812  0.08269892     0.12700
H305        H  0.02082046  0.33536760  0.99860003     0.26000
H306        H  0.98421475  0.33019081  0.99908696     0.26000
N307        N  0.36349434  0.00309340  0.00591279    -0.36800
N308        N  0.36258837  0.96740475  0.97002774    -0.57300
N309        N  0.36123732  0.93027032  0.00503679    -0.36800
N310        N  0.36233082  0.96586423  0.04090958    -0.57300
C311        C  0.37013961  0.01573230  0.98719684     0.26800
C312        C  0.37073771  0.01474273  0.02497252     0.26800
C313        C  0.36766138  0.91810020  0.98596056     0.26800
C314        C  0.36702292  0.91727104  0.02379266     0.26800
C315        C  0.36233853  0.98646062  0.95630156     0.35400
C316        C  0.36162494  0.94877859  0.95579634     0.35400
C317        C  0.36281281  0.98448901  0.05510832     0.35400
C318        C  0.36093647  0.94694365  0.05470154     0.35400
C319        C  0.38032608  0.03621149  0.99456568    -0.22100
C320        C  0.38066650  0.03560964  0.01825969    -0.22100
C321        C  0.37632974  0.89669358  0.99273869    -0.22100
C322        C  0.37598310  0.89620303  0.01645118    -0.22100
C323        C  0.36049256  0.97988686  0.93331503    -0.23100
C324        C  0.36007231  0.95610684  0.93298783    -0.23100
C325        C  0.36091261  0.97739566  0.07796335    -0.23100
C326        C  0.35967044  0.95366114  0.07770385    -0.23100
C327        C  0.36852340  0.00905243  0.96358944    -0.18500
C328        C  0.36974506  0.00695528  0.04828878    -0.18500
C329        C  0.36568624  0.92404041  0.04741221    -0.18500
C330        C  0.36666799  0.92570193  0.96254515    -0.18500
H331        H  0.38743459  0.04996572  0.98397218     0.14400
H332        H  0.38800764  0.04887862  0.02926544     0.14400
H333        H  0.38277050  0.88290817  0.98177983     0.14400
H334        H  0.38222682  0.88206190  0.02707191     0.14400
H335        H  0.36091771  0.99104221  0.91825046     0.12700
H336        H  0.36006991  0.94543625  0.91759328     0.12700
H337        H  0.36185855  0.98812637  0.09329446     0.12700
H338        H  0.35951088  0.94252961  0.09279325     0.12700
H339        H  0.35429162  0.98762510  0.00572798     0.26000
H340        H  0.35289774  0.94623377  0.00519876     0.26000
N341        N  0.96212187  0.96192806  0.63939166    -0.36800
N342        N  0.99846853  0.99719729  0.63871464    -0.57300
N343        N  0.03535212  0.96178492  0.63962283    -0.36800
N344        N  0.99899094  0.92647584  0.63970289    -0.57300
C345        C  0.94972125  0.98072899  0.63244615     0.26800
C346        C  0.94995383  0.94284256  0.63300054     0.26800
C347        C  0.04764930  0.98070391  0.63299937     0.26800
C348        C  0.04785581  0.94286879  0.63326046     0.26800
C349        C  0.97965976  0.01127259  0.63907826     0.35400
C350        C  0.01731017  0.01115149  0.63942495     0.35400
C351        C  0.98016610  0.91248598  0.64043498     0.35400
C352        C  0.01782698  0.91243784  0.64031018     0.35400
C353        C  0.92893791  0.97345151  0.62283620    -0.22100
C354        C  0.92907593  0.94968079  0.62318784    -0.22100
C355        C  0.06876902  0.97370182  0.62378999    -0.22100
C356        C  0.06890322  0.94994207  0.62397067    -0.22100
C357        C  0.98660144  0.03418993  0.64080335    -0.23100
C358        C  0.01039443  0.03411686  0.64102931    -0.23100
C359        C  0.98711862  0.88955653  0.64230031    -0.23100
C360        C  0.01089733  0.88952514  0.64218203    -0.23100
C361        C  0.95686554  0.00427710  0.63336183    -0.18500
C362        C  0.95736243  0.91938084  0.63457045    -0.18500
C363        C  0.04060531  0.91937222  0.63440923    -0.18500
C364        C  0.04013488  0.00411985  0.63378538    -0.18500
H365        H  0.91530434  0.98413462  0.61562309     0.14400
H366        H  0.91554503  0.93868353  0.61629977     0.14400
H367        H  0.08246278  0.98456755  0.61695530     0.14400
H368        H  0.08272833  0.93911309  0.61733167     0.14400
H369        H  0.97566463  0.04944178  0.64046440     0.12700
H370        H  0.02138596  0.04931870  0.64085223     0.12700
H371        H  0.97617457  0.87432230  0.64216105     0.12700
H372        H  0.02181993  0.87426657  0.64196140     0.12700
H373        H  0.97775905  0.96206348  0.64831370     0.26000
H374        H  0.01950249  0.96184431  0.64820138     0.26000
N375        N  0.03661279  0.96211889  0.35751719    -0.36800
N376        N  0.00046724  0.99761363  0.35664921    -0.57300
N377        N  0.96332808  0.96322781  0.35800703    -0.36800
N378        N  0.99950542  0.92757783  0.35787177    -0.57300
C379        C  0.04865514  0.98100352  0.36461887     0.26800
C380        C  0.04823135  0.94321767  0.36529494     0.26800
C381        C  0.95206486  0.98240493  0.36575992     0.26800
C382        C  0.95132035  0.94454399  0.36576672     0.26800
C383        C  0.01946375  0.01120384  0.35470457     0.35400
C384        C  0.98184766  0.01179977  0.35527865     0.35400
C385        C  0.01815495  0.91332978  0.35705121     0.35400
C386        C  0.98048954  0.91387957  0.35674571     0.35400
C387        C  0.06876115  0.97395375  0.37576155    -0.22100
C388        C  0.06852053  0.95019255  0.37614576    -0.22100
C389        C  0.93206253  0.97579799  0.37737006    -0.22100
C390        C  0.93156181  0.95200375  0.37733299    -0.22100
C391        C  0.01284718  0.03401272  0.35106941    -0.23100
C392        C  0.98905183  0.03439118  0.35143302    -0.23100
C393        C  0.01096414  0.89056942  0.35453841    -0.23100
C394        C  0.98716620  0.89091217  0.35430501    -0.23100
C395        C  0.04176149  0.00446388  0.36216814    -0.18500
C396        C  0.04079685  0.91984923  0.36371997    -0.18500
C397        C  0.95802313  0.92093824  0.36366124    -0.18500
C398        C  0.95954086  0.00572310  0.36331677    -0.18500
H399        H  0.08203780  0.98480272  0.38334160     0.14400
H400        H  0.08158570  0.93932573  0.38408826     0.14400
H401        H  0.91934963  0.98695029  0.38551456     0.14400
H402        H  0.91840268  0.94141076  0.38550779     0.14400
H403        H  0.02400290  0.04906655  0.35020361     0.12700
H404        H  0.97834857  0.04979521  0.35087812     0.12700
H405        H  0.02171424  0.87518364  0.35460066     0.12700
H406        H  0.97604773  0.87580814  0.35423845     0.12700
H407        H  0.02160829  0.96211703  0.34753409     0.26000
H408        H  0.97808190  0.96288150  0.34761104     0.26000
C409        C  0.58287705  0.84592774  0.58733382     0.80100
N410        N  0.56795348  0.83341118  0.57389690    -0.78200
C411        C  0.55200716  0.84469780  0.56054414     0.82500
N412        N  0.55078374  0.86817550  0.56112831    -0.78200
C413        C  0.56529253  0.88065644  0.57465134     0.82600
N414        N  0.58127442  0.86940339  0.58764332    -0.79900
C415        C  0.57790363  0.08850724  0.59351243     0.80100
N416        N  0.56693110  0.10129090  0.57679208    -0.78200
C417        C  0.55212745  0.09062977  0.56170604     0.82500
N418        N  0.54836276  0.06754008  0.56344403    -0.78200
C419        C  0.55914584  0.05466373  0.57973297     0.82600
N420        N  0.57366707  0.06532919  0.59477676    -0.79900
C421        C  0.87870289  0.54760756  0.58782424     0.80100
N422        N  0.90210435  0.54485869  0.58857951    -0.78200
C423        C  0.91335390  0.53087455  0.57346890     0.82500
N424        N  0.90096381  0.51936488  0.55725566    -0.78200
C425        C  0.87752143  0.52138135  0.55639994     0.82600
N426        N  0.86631667  0.53559308  0.57163736    -0.79900
C427        C  0.12337510  0.54877691  0.58820750     0.80100
N428        N  0.09979098  0.54772739  0.58774842    -0.78200
C429        C  0.08858617  0.53213798  0.57422399     0.82500
N430        N  0.10128201  0.51769179  0.56088188    -0.78200
C431        C  0.12473204  0.51812048  0.56117620     0.82600
N432        N  0.13599242  0.53366173  0.57496142    -0.79900
C433        C  0.57782269  0.55536095  0.87627843     0.80100
N434        N  0.56522124  0.53954923  0.86396214    -0.78200
C435        C  0.55184322  0.52376007  0.87546252     0.82500
N436        N  0.55145098  0.52363749  0.89893008    -0.78200
C437        C  0.56436643  0.53876959  0.91126579     0.82600
N438        N  0.57734271  0.55462411  0.89978819    -0.79900
C439        C  0.59025268  0.54776433  0.12070138     0.80100
N440        N  0.57509968  0.53436741  0.13305379    -0.78200
C441        C  0.55758831  0.52297225  0.12197271     0.82500
N442        N  0.55550710  0.52473704  0.09862650    -0.78200
C443        C  0.57079773  0.53742944  0.08610257     0.82600
N444        N  0.58781464  0.54900216  0.09733798    -0.79900
C445        C  0.88017510  0.54617808  0.40819191     0.80100
N446        N  0.90357066  0.54319031  0.40817383    -0.78200
C447        C  0.91397734  0.52793321  0.42261218     0.82500
N448        N  0.90070360  0.51478393  0.43674927    -0.78200
C449        C  0.87732454  0.51725156  0.43709965     0.82600
N450        N  0.86696274  0.53313720  0.42295434    -0.79900
C451        C  0.12327339  0.54254693  0.41379409     0.80100
N452        N  0.13549341  0.52858811  0.42853386    -0.78200
C453        C  0.12387504  0.51336129  0.44249423     0.82500
N454        N  0.10034679  0.51240428  0.44178382    -0.78200
C455        C  0.08824553  0.52693562  0.42792521     0.82600
N456        N  0.09975374  0.54210102  0.41428924    -0.79900
C457        C  0.58793180  0.84217906  0.41723333     0.80100
N458        N  0.57344024  0.83065454  0.43202255    -0.78200
C459        C  0.56107279  0.84280982  0.44814759     0.82500
N460        N  0.56330166  0.86619668  0.44931525    -0.78200
C461        C  0.57760331  0.87774552  0.43469606     0.82600
N462        N  0.58976865  0.86557854  0.41872163    -0.79900
C463        C  0.59236094  0.08843692  0.41723016     0.80100
N464        N  0.57569831  0.09996193  0.42953647    -0.78200
C465        C  0.55987951  0.08774312  0.44222899     0.82500
N466        N  0.56056334  0.06422291  0.44215925    -0.78200
C467        C  0.57715070  0.05265947  0.43017122     0.82600
N468        N  0.59290170  0.06489405  0.41774631    -0.79900
C469        C  0.87635086  0.37907815  0.58773154     0.80100
N470        N  0.89952042  0.38255515  0.59017475    -0.78200
C471        C  0.91077678  0.39900853  0.57782318     0.82500
N472        N  0.89855509  0.41265202  0.56316960    -0.78200
C473        C  0.87532404  0.40975700  0.56059134     0.82600
N474        N  0.86414715  0.39274957  0.57271635    -0.79900
C475        C  0.11971842  0.37524051  0.59354125     0.80100
N476        N  0.09635462  0.37790553  0.59508135    -0.78200
C477        C  0.08518490  0.39436819  0.58264547     0.82500
N478        N  0.09750287  0.40796823  0.56797742    -0.78200
C479        C  0.12074126  0.40495551  0.56541989     0.82600
N480        N  0.13192705  0.38841373  0.57810321    -0.79900
C481        C  0.40208148  0.84499631  0.57910643     0.80100
N482        N  0.41766728  0.83220748  0.56655997    -0.78200
C483        C  0.43254463  0.84301831  0.55160901     0.82500
N484        N  0.43189452  0.86637095  0.54935704    -0.78200
C485        C  0.41689213  0.87921341  0.56192527     0.82600
N486        N  0.40216364  0.86843870  0.57669455    -0.79900
C487        C  0.41657678  0.08777676  0.58815124     0.80100
N488        N  0.41606098  0.06436477  0.58625849    -0.78200
C489        C  0.42782738  0.05320602  0.56937410     0.82500
N490        N  0.44092457  0.06565790  0.55444432    -0.78200
C491        C  0.44168055  0.08912932  0.55581438     0.82600
N492        N  0.42945917  0.10033502  0.57272915    -0.79900
C493        C  0.58662506  0.38007028  0.87768625     0.80100
N494        N  0.58443298  0.37867984  0.90104612    -0.78200
C495        C  0.56735929  0.39006258  0.91248535     0.82500
N496        N  0.55215530  0.40299625  0.90015180    -0.78200
C497        C  0.55382764  0.40466289  0.87676826     0.82600
N498        N  0.57114158  0.39313075  0.86536174    -0.79900
C499        C  0.58439986  0.37263371  0.12211045     0.80100
N500        N  0.58202740  0.37208516  0.09872653    -0.78200
C501        C  0.56757186  0.38673019  0.08751694     0.82500
N502        N  0.55519278  0.40229072  0.09995132    -0.78200
C503        C  0.55692938  0.40306360  0.12336793     0.82600
N504        N  0.57164358  0.38826095  0.13457827    -0.79900
C505        C  0.41428967  0.55484744  0.88171746     0.80100
N506        N  0.41587529  0.55389049  0.90515303    -0.78200
C507        C  0.42878934  0.53751396  0.91583885     0.82500
N508        N  0.44086808  0.52217656  0.90287767    -0.78200
C509        C  0.43991399  0.52291555  0.87943505     0.82600
N510        N  0.42652539  0.53924082  0.86873098    -0.79900
C511        C  0.41444939  0.55059185  0.12405935     0.80100
N512        N  0.42898454  0.53665435  0.13661245    -0.78200
C513        C  0.44491390  0.52315929  0.12532225     0.82500
N514        N  0.44616204  0.52371007  0.10187279    -0.78200
C515        C  0.43104340  0.53659625  0.08948920     0.82600
N516        N  0.41498602  0.54948307  0.10062185    -0.79900
C517        C  0.41451671  0.84392116  0.40918330     0.80100
N518        N  0.42720563  0.83224842  0.42541299    -0.78200
C519        C  0.44114055  0.84428981  0.44024516     0.82500
N520        N  0.44224643  0.86774299  0.43877021    -0.78200
C521        C  0.43007921  0.87936276  0.42244612     0.82600
N522        N  0.41649134  0.86729148  0.40773357    -0.79900
C523        C  0.41729162  0.08718010  0.40729240     0.80100
N524        N  0.42064966  0.06389946  0.40592579    -0.78200
C525        C  0.43603767  0.05289016  0.41971724     0.82500
N526        N  0.44897490  0.06540921  0.43459377    -0.78200
C527        C  0.44621278  0.08863924  0.43631775     0.82600
N528        N  0.43007996  0.09963829  0.42289817    -0.79900
C529        C  0.87628163  0.38123609  0.40861943     0.80100
N530        N  0.89982020  0.38210155  0.40879396    -0.78200
C531        C  0.91134618  0.39473336  0.42483855     0.82500
N532        N  0.89902584  0.40658569  0.44091550    -0.78200
C533        C  0.87550371  0.40602013  0.44105508     0.82600
N534        N  0.86398208  0.39312692  0.42497318    -0.79900
C535        C  0.12084769  0.37340284  0.41594793     0.80100
N536        N  0.09736284  0.37524357  0.41634226    -0.78200
C537        C  0.08637216  0.38953571  0.43131848     0.82500
N538        N  0.09914413  0.40206423  0.44638517    -0.78200
C539        C  0.12262192  0.40073558  0.44636309     0.82600
N540        N  0.13365072  0.38638902  0.43107276    -0.79900
C541        C  0.41584314  0.37070333  0.88008921     0.80100
N542        N  0.42728931  0.38745162  0.86784077    -0.78200
C543        C  0.44017989  0.40361434  0.87925733     0.82500
N544        N  0.44118817  0.40323312  0.90267376    -0.78200
C545        C  0.42992204  0.38676901  0.91499346     0.82600
N546        N  0.41733464  0.37053976  0.90359694    -0.79900
C547        C  0.41600951  0.37550510  0.12407906     0.80100
N548        N  0.43008480  0.38989714  0.13651898    -0.78200
C549        C  0.44570451  0.40368463  0.12527847     0.82500
N550        N  0.44704906  0.40314854  0.10182845    -0.78200
C551        C  0.43293004  0.38921990  0.08937006     0.82600
N552        N  0.41752265  0.37557338  0.10062046    -0.79900
C553        C  0.09384454  0.34902570  0.07955312     0.80100
N554        N  0.09521200  0.37228260  0.07595605    -0.78200
C555        C  0.08030190  0.38326892  0.06149347     0.82500
N556        N  0.06359616  0.37079860  0.05070682    -0.78200
C557        C  0.06204706  0.34753531  0.05381796     0.82600
N558        N  0.07719195  0.33658163  0.06826047    -0.79900
C559        C  0.08585715  0.59195761  0.08279813     0.80100
N560        N  0.07100319  0.60406053  0.06884912    -0.78200
C561        C  0.05947396  0.59271192  0.05157246     0.82500
N562        N  0.06311516  0.56972043  0.04825525    -0.78200
C563        C  0.07783565  0.55768202  0.06197021     0.82600
N564        N  0.08893169  0.56890506  0.07930439    -0.79900
C565        C  0.38562524  0.05102262  0.09279018     0.80100
N566        N  0.40914073  0.05001355  0.09089658    -0.78200
C567        C  0.41960469  0.03474759  0.07642829     0.82500
N568        N  0.40637457  0.01982001  0.06420581    -0.78200
C569        C  0.38293428  0.02068930  0.06544616     0.82600
N570        N  0.37249045  0.03636497  0.07967600    -0.79900
C571        C  0.62712026  0.05181146  0.08454518     0.80100
N572        N  0.64010160  0.03713992  0.07125984    -0.78200
C573        C  0.62970447  0.02500397  0.05386423     0.82500
N574        N  0.60656118  0.02729135  0.05016748    -0.78200
C575        C  0.59367266  0.04189591  0.06323316     0.82600
N576        N  0.60416643  0.05418013  0.08012943    -0.79900
C577        C  0.38317990  0.05294842  0.91777728     0.80100
N578        N  0.37023160  0.03945167  0.93243831    -0.78200
C579        C  0.38109087  0.02371894  0.94649049     0.82500
N580        N  0.40452374  0.02175455  0.94589980    -0.78200
C581        C  0.41723267  0.03455249  0.93097083     0.82600
N582        N  0.40649760  0.04987886  0.91691267    -0.79900
C583        C  0.62640161  0.05168435  0.91743373     0.80100
N584        N  0.63863392  0.03625290  0.93065245    -0.78200
C585        C  0.62701155  0.02044857  0.94396796     0.82500
N586        N  0.60347804  0.02033990  0.94410862    -0.78200
C587        C  0.59128780  0.03552093  0.93108265     0.82600
N588        N  0.60286069  0.05093305  0.91777338    -0.79900
C589        C  0.37814371  0.87489158  0.08788863     0.80100
N590        N  0.40160950  0.87688757  0.08908734    -0.78200
C591        C  0.41280918  0.89463361  0.07853566     0.82500
N592        N  0.40043201  0.91063257  0.06674812    -0.78200
C593        C  0.37711717  0.90861186  0.06456750     0.82600
N594        N  0.36579596  0.89075184  0.07528282    -0.79900
C595        C  0.62189664  0.87942869  0.09262137     0.80100
N596        N  0.63487009  0.89177938  0.07705098    -0.78200
C597        C  0.62408952  0.90629967  0.06175534     0.82500
N598        N  0.60064581  0.90834594  0.06214313    -0.78200
C599        C  0.58767404  0.89679186  0.07788753     0.82600
N600        N  0.59852200  0.88241419  0.09293773    -0.79900
C601        C  0.91645845  0.34388213  0.08704399     0.80100
N602        N  0.93056467  0.33186280  0.07235024    -0.78200
C603        C  0.94209374  0.34330852  0.05521759     0.82500
N604        N  0.93898526  0.36643604  0.05242838    -0.78200
C605        C  0.92536345  0.37852320  0.06720211     0.82600
N606        N  0.91423282  0.36719849  0.08452941    -0.79900
C607        C  0.90864975  0.58722911  0.07784490     0.80100
N608        N  0.92509141  0.59950096  0.06597063    -0.78200
C609        C  0.93924842  0.58835564  0.05061718     0.82500
N610        N  0.93705968  0.56517656  0.04738214    -0.78200
C611        C  0.92094849  0.55276793  0.05909428     0.82600
N612        N  0.90706179  0.56398502  0.07440360    -0.79900
C613        C  0.92247145  0.05694113  0.37824984     0.80100
N614        N  0.92657030  0.05804852  0.40139559    -0.78200
C615        C  0.94029009  0.04232704  0.41215253     0.82500
N616        N  0.95008571  0.02514454  0.39951696    -0.78200
C617        C  0.94668077  0.02387056  0.37630934     0.82600
N618        N  0.93288052  0.03982630  0.36558663    -0.79900
C619        C  0.90972365  0.04705134  0.61980373     0.80100
N620        N  0.92424899  0.03298449  0.63222608    -0.78200
C621        C  0.94202523  0.02165872  0.62135619     0.82500
N622        N  0.94516118  0.02442597  0.59823627    -0.78200
C623        C  0.93030619  0.03750672  0.58566285     0.82600
N624        N  0.91265309  0.04862088  0.59648511    -0.79900
C625        C  0.08442407  0.87392054  0.37736911     0.80100
N626        N  0.08216842  0.87308901  0.40076356    -0.78200
C627        C  0.06685758  0.88695530  0.41191785     0.82500
N628        N  0.05322170  0.90139833  0.39945423    -0.78200
C629        C  0.05485897  0.90219578  0.37602908     0.82600
N630        N  0.07053821  0.88843356  0.36484565    -0.79900
C631        C  0.08203885  0.87095636  0.62116099     0.80100
N632        N  0.06895787  0.88642802  0.63352665    -0.78200
C633        C  0.05519668  0.90200586  0.62215346     0.82500
N634        N  0.05430234  0.90180057  0.59869031    -0.78200
C635        C  0.06706953  0.88650361  0.58633581     0.82600
N636        N  0.08101080  0.87143560  0.59766212    -0.79900
C637        C  0.91031381  0.34212685  0.91806201     0.80100
N638        N  0.92682635  0.32977361  0.92972374    -0.78200
C639        C  0.94266141  0.34111818  0.94309168     0.82500
N640        N  0.94222456  0.36457139  0.94434228    -0.78200
C641        C  0.92623148  0.37698546  0.93252256     0.82600
N642        N  0.91020743  0.36562725  0.91966544    -0.79900
C643        C  0.91012170  0.58572764  0.91047162     0.80100
N644        N  0.91024447  0.56227881  0.91248187    -0.78200
C645        C  0.92459875  0.55128689  0.92734705     0.82500
N646        N  0.93881210  0.56397954  0.94093950    -0.78200
C647        C  0.93931059  0.58741750  0.93916595     0.82600
N648        N  0.92500027  0.59840481  0.92384198    -0.79900
C649        C  0.91843880  0.87184788  0.37922527     0.80100
N650        N  0.92956188  0.88822604  0.36616614    -0.78200
C651        C  0.94415356  0.90360746  0.37667875     0.82500
N652        N  0.94730501  0.90265538  0.39990614    -0.78200
C653        C  0.93620394  0.88672992  0.41301192     0.82600
N654        N  0.92181728  0.87149622  0.40246978    -0.79900
C655        C  0.91114793  0.87597736  0.62095014     0.80100
N656        N  0.92572700  0.88972064  0.63358356    -0.78200
C657        C  0.94290521  0.90180845  0.62261558     0.82500
N658        N  0.94577603  0.89961102  0.59942794    -0.78200
C659        C  0.93115433  0.88640553  0.58680909     0.82600
N660        N  0.91386355  0.87472866  0.59761265    -0.79900
C661        C  0.37617389  0.88487819  0.91292487     0.80100
N662        N  0.36497651  0.89862025  0.92867320    -0.78200
C663        C  0.37756612  0.91037074  0.94490054     0.82500
N664        N  0.40094395  0.90776315  0.94565278    -0.78200
C665        C  0.41205912  0.89385580  0.93038872     0.82600
N666        N  0.39958817  0.88255847  0.91409452    -0.79900
C667        C  0.62042043  0.87209947  0.91993685     0.80100
N668        N  0.59698040  0.87165789  0.92230252    -0.78200
C669        C  0.58590244  0.88546252  0.93768620     0.82500
N670        N  0.59858325  0.89962094  0.95136424    -0.78200
C671        C  0.62199234  0.90061556  0.94923611     0.82600
N672        N  0.63300537  0.88701607  0.93331126    -0.79900
O673        O  0.21003986  0.69498008  0.75571118    -0.88500
C674        C  0.27468062  0.66851527  0.76270600     0.87500
Mg675      Mg  0.19939040  0.71256485  0.72528338     1.58100
O676        O  0.26549095  0.71996639  0.79334483    -0.88200
O677        O  0.21345818  0.70310035  0.79269283    -0.75600
C678        C  0.28830297  0.78135061  0.69817367     0.92600
O679        O  0.24322605  0.67326542  0.71702435    -0.75400
O680        O  0.26949778  0.77317099  0.69006565    -0.82900
Mg681      Mg  0.22615527  0.66193854  0.75119961     1.58000
C682        C  0.31209061  0.77295597  0.79447649     0.92500
O683        O  0.20811562  0.64824452  0.78448793    -0.81100
H684        H  0.24778275  0.73838599  0.81679620    -0.06500
C685        C  0.29747693  0.72584037  0.73157765     0.87400
O686        O  0.20772129  0.74763598  0.74261635    -0.75700
O687        O  0.25538502  0.67475916  0.76985361    -0.88400
O688        O  0.31011836  0.75145841  0.79944825    -0.81200
C689        C  0.30425878  0.67738064  0.81971921     0.92600
C690        C  0.21237546  0.64651975  0.80612379     0.92500
Mg691      Mg  0.27466210  0.76719159  0.75381937     1.58000
O692        O  0.29316750  0.77933937  0.71968345    -0.81200
O693        O  0.25743533  0.75686677  0.78844041    -0.75400
O694        O  0.28299537  0.67243277  0.81643041    -0.81200
O695        O  0.19671376  0.64772034  0.72918692    -0.82900
O696        O  0.21555926  0.75792067  0.68958965    -0.81300
C697        C  0.25673724  0.73829239  0.80034077     0.86900
O698        O  0.24461547  0.75492003  0.73591521    -0.88400
O699        O  0.28982892  0.73375944  0.75001834    -0.88500
O700        O  0.28568866  0.72615628  0.71293774    -0.75600
Mg701      Mg  0.24889311  0.68854514  0.80353110     1.58000
O702        O  0.31266877  0.69651647  0.81259305    -0.82900
H703        H  0.18454812  0.70990180  0.77388745    -0.06700
O704        O  0.23391604  0.70988810  0.71236061    -0.88200
H705        H  0.25210152  0.69218307  0.68874914    -0.06500
H706        H  0.22398368  0.77710842  0.75279739    -0.06700
C707        C  0.24316872  0.69187714  0.70521302     0.86900
C708        C  0.20182942  0.70262130  0.77400842     0.87500
C709        C  0.22549023  0.76069694  0.74390669     0.87500
H710        H  0.31446787  0.71790602  0.73143431    -0.06700
O711        O  0.29252830  0.68140988  0.76425861    -0.75700
Mg712      Mg  0.25022197  0.74135106  0.70213130     1.58000
H713        H  0.27628425  0.65184359  0.75432995    -0.06700
C714        C  0.18811022  0.65646227  0.71084470     0.92500
O715        O  0.18658292  0.73303055  0.69441152    -0.82900
C716        C  0.19434528  0.75217801  0.68671426     0.92600
O717        O  0.22975958  0.65656093  0.81518657    -0.82900
Mg718      Mg  0.30034171  0.71677330  0.78112531     1.58200
O719        O  0.18927033  0.67823121  0.70685949    -0.81200
O720        O  0.30479404  0.78089172  0.77520282    -0.82900
O721        O  0.70554458  0.73127645  0.74606021    -0.88500
C722        C  0.76822919  0.76157564  0.73947192     0.87500
Mg723      Mg  0.69628654  0.71260808  0.77639807     1.58100
O724        O  0.76187214  0.71083922  0.70711246    -0.88200
O725        O  0.70917823  0.72475945  0.70874886    -0.75600
C726        C  0.78832928  0.64741590  0.79996561     0.92600
O727        O  0.73746535  0.75405002  0.78486710    -0.75400
O728        O  0.76952710  0.65436928  0.80923293    -0.82900
Mg729      Mg  0.71919554  0.76524376  0.75113179     1.58000
C730        C  0.81128643  0.65991017  0.70491844     0.92500
O731        O  0.69962220  0.77809047  0.71808531    -0.81100
H732        H  0.74483680  0.69230105  0.68333716    -0.06500
C733        C  0.79459143  0.70412892  0.76870894     0.87400
O734        O  0.70572507  0.67832464  0.75817042    -0.75700
O735        O  0.74924492  0.75489202  0.73195691    -0.88400
O736        O  0.80820229  0.68137714  0.70026910    -0.81200
C737        C  0.79865108  0.75584520  0.68167902     0.92600
C738        C  0.70366478  0.78072360  0.69646644     0.92500
Mg739      Mg  0.77317388  0.66274970  0.74524936     1.58000
O740        O  0.79217386  0.65035289  0.77839623    -0.81200
O741        O  0.75538600  0.67350816  0.71113151    -0.75400
O742        O  0.77722025  0.76037450  0.68520396    -0.81200
O743        O  0.68895979  0.77705018  0.77389100    -0.82900
O744        O  0.71471963  0.66677442  0.81018209    -0.81300
C745        C  0.75387097  0.69234151  0.69972065     0.86900
O746        O  0.74303260  0.67301141  0.76396187    -0.88400
O747        O  0.78688442  0.69665983  0.75012925    -0.88500
O748        O  0.78315995  0.70269475  0.78755312    -0.75600
Mg749      Mg  0.74363856  0.74181554  0.69791902     1.58000
O750        O  0.80759841  0.73685623  0.68854262    -0.82900
H751        H  0.68103376  0.71519616  0.72762237    -0.06700
O752        O  0.73074556  0.71672902  0.78880464    -0.88200
H753        H  0.74828654  0.73502930  0.81239755    -0.06500
H754        H  0.72340346  0.64994425  0.74716422    -0.06700
C755        C  0.73899280  0.73514160  0.79615874     0.86900
C756        C  0.69775172  0.72366955  0.72759047     0.87500
C757        C  0.72414522  0.66627932  0.75628117     0.87500
H758        H  0.81128576  0.71264785  0.76881675    -0.06700
O759        O  0.78662661  0.74948597  0.73748569    -0.75700
Mg760      Mg  0.74850158  0.68561919  0.79817792     1.58000
H761        H  0.76908886  0.77793741  0.74853103    -0.06700
C762        C  0.68192759  0.76738718  0.79248170     0.92500
O763        O  0.68526423  0.69131375  0.80726178    -0.82900
C764        C  0.69340782  0.67181517  0.81356640     0.92600
O765        O  0.72220904  0.77298961  0.68722616    -0.82900
Mg766      Mg  0.79640631  0.71511814  0.71949756     1.58200
O767        O  0.68495379  0.74575041  0.79582998    -0.81200
O768        O  0.80381920  0.65099648  0.72365595    -0.82900
O769        O  0.74787410  0.72847249  0.29264770    -0.88500
C770        C  0.74004033  0.76076991  0.23098102     0.87500
Mg771      Mg  0.77906515  0.71080641  0.30148426     1.58100
O772        O  0.70980726  0.70854263  0.23572147    -0.88200
O773        O  0.71074008  0.72075392  0.28878911    -0.75600
C774        C  0.80621671  0.65046853  0.20664832     0.92600
O775        O  0.78597286  0.75431136  0.26188446    -0.75400
O776        O  0.81541246  0.65794788  0.22522133    -0.82900
Mg777      Mg  0.75153217  0.76307548  0.28017666     1.58000
C778        C  0.71008686  0.65883624  0.18539622     0.92500
O779        O  0.71788575  0.77389145  0.29983620    -0.81100
H780        H  0.68732320  0.68822940  0.25260262    -0.06500
C781        C  0.77173641  0.70623908  0.20294182     0.87400
O782        O  0.76264540  0.67617641  0.29053664    -0.75700
O783        O  0.73295742  0.75297095  0.24970736    -0.88400
O784        O  0.70427310  0.68001097  0.18874412    -0.81200
C785        C  0.68301636  0.75406038  0.20036591     0.92600
C786        C  0.69620443  0.77614583  0.29585252     0.92500
Mg787      Mg  0.75070384  0.66280290  0.22296763     1.58000
O788        O  0.78439986  0.65241943  0.20318327    -0.81200
O789        O  0.71615148  0.67137336  0.24137440    -0.75400
O790        O  0.68620429  0.75747293  0.22197159    -0.81200
O791        O  0.77339298  0.77462910  0.31099278    -0.82900
O792        O  0.81614854  0.66833263  0.28065889    -0.81300
C793        C  0.70361333  0.68945244  0.24339050     0.86900
O794        O  0.76913736  0.67277068  0.25317607    -0.88400
O795        O  0.75359165  0.69732020  0.21026629    -0.88500
O796        O  0.79065972  0.70544989  0.21427922    -0.75600
Mg797      Mg  0.69932469  0.73846361  0.25490461     1.58000
O798        O  0.69004196  0.73546985  0.19067267    -0.82900
H799        H  0.72992557  0.71089929  0.31654766    -0.06700
O800        O  0.79168138  0.71703748  0.26729834    -0.88200
H801        H  0.81466556  0.73713390  0.25085080    -0.06500
H802        H  0.75352183  0.64796348  0.27168573    -0.06700
C803        C  0.79826443  0.73608763  0.25988632     0.86900
C804        C  0.72963269  0.71992743  0.30014952     0.87500
C805        C  0.76171541  0.66480790  0.27168732     0.87500
H806        H  0.77133524  0.71553697  0.18669688    -0.06700
O807        O  0.73842271  0.74937150  0.21215807    -0.75700
Mg808      Mg  0.80262813  0.68753432  0.24792836     1.58000
H809        H  0.74832858  0.77756558  0.23069488    -0.06700
C810        C  0.79232060  0.76570552  0.31805917     0.92500
O811        O  0.81070500  0.69018079  0.31189003    -0.82900
C812        C  0.81892714  0.67212095  0.30227697     0.92600
O813        O  0.68727100  0.76863107  0.27713439    -0.82900
Mg814      Mg  0.72197064  0.71450101  0.20131410     1.58200
O815        O  0.79688696  0.74434439  0.31446671    -0.81200
O816        O  0.72942857  0.65100210  0.19250594    -0.82900
O817        O  0.76759429  0.25515380  0.74731630    -0.88500
C818        C  0.79758703  0.19179750  0.74180112     0.87500
Mg819      Mg  0.74939373  0.26574943  0.77776025     1.58100
O820        O  0.74612225  0.19753080  0.71032071    -0.88200
O821        O  0.76055497  0.25002985  0.71022996    -0.75600
C822        C  0.68532949  0.17416404  0.80603990     0.92600
O823        O  0.79088902  0.22425525  0.78661003    -0.75400
O824        O  0.69205969  0.19351146  0.81419715    -0.82900
Mg825      Mg  0.80158078  0.24124667  0.75209151     1.58000
C826        C  0.69443402  0.14901008  0.71098713     0.92500
O827        O  0.81404234  0.25950590  0.71803494    -0.81100
H828        H  0.72694230  0.21418460  0.68673869    -0.06500
C829        C  0.74111747  0.16735764  0.77324555     0.87400
O830        O  0.71476720  0.25572192  0.76052242    -0.75700
O831        O  0.79075698  0.21059553  0.73395025    -0.88400
O832        O  0.71585261  0.15166325  0.70569406    -0.81200
C833        C  0.79013659  0.15922514  0.68501411     0.92600
C834        C  0.81648254  0.25464878  0.69653567     0.92500
Mg835      Mg  0.69895880  0.18778535  0.75040817     1.58000
O836        O  0.68789957  0.16941251  0.78460013    -0.81200
O837        O  0.70892067  0.20455171  0.71541519    -0.75400
O838        O  0.79519987  0.18068314  0.68747011    -0.81200
O839        O  0.81406854  0.27201686  0.77401000    -0.82900
O840        O  0.70468464  0.24826750  0.81390511    -0.81300
C841        C  0.72743320  0.20556864  0.70335193     0.86900
O842        O  0.70961802  0.21864624  0.76781357    -0.88400
O843        O  0.73298602  0.17428624  0.75462512    -0.88500
O844        O  0.74004094  0.17940175  0.79169936    -0.75600
Mg845      Mg  0.77716340  0.21511353  0.69991421     1.58000
O846        O  0.77119446  0.15099755  0.69290270    -0.82900
H847        H  0.75117628  0.27885381  0.72808431    -0.06700
O848        O  0.75374949  0.23174050  0.79133982    -0.88200
H849        H  0.77248128  0.21482207  0.81507344    -0.06500
H850        H  0.68618901  0.23767743  0.75075945    -0.06700
C851        C  0.77227525  0.22351273  0.79849283     0.86900
C852        C  0.75968428  0.26216360  0.72863188     0.87500
C853        C  0.70270837  0.23725475  0.75957904     0.87500
H854        H  0.74988827  0.15080172  0.77371765    -0.06700
O855        O  0.78538864  0.17342666  0.74059531    -0.75700
Mg856      Mg  0.72303400  0.21421267  0.80187417     1.58000
H857        H  0.81419637  0.19108350  0.75043280    -0.06700
C858        C  0.80479312  0.27944504  0.79266957     0.92500
O859        O  0.72817452  0.27823758  0.80857793    -0.82900
C860        C  0.70935303  0.26975916  0.81647168     0.92600
O861        O  0.80836132  0.23596891  0.68803554    -0.82900
Mg862      Mg  0.75038222  0.16346842  0.72385379     1.58200
O863        O  0.78307499  0.27713198  0.79640746    -0.81200
O864        O  0.68637478  0.15661940  0.73004696    -0.82900
C865        C  0.08588532  0.34129230  0.90990303     0.80100
N866        N  0.07308978  0.32862126  0.92529468    -0.78200
C867        C  0.06176977  0.33957433  0.94293108     0.82500
N868        N  0.06337775  0.36289583  0.94512838    -0.78200
C869        C  0.07540776  0.37562136  0.92956683     0.82600
N870        N  0.08672602  0.36471944  0.91212427    -0.79900
C871        C  0.09068895  0.58396898  0.91576925     0.80100
N872        N  0.09059806  0.56062896  0.91877171    -0.78200
C873        C  0.07489395  0.55008779  0.93269985     0.82500
N874        N  0.05905771  0.56332886  0.94382945    -0.78200
C875        C  0.05880837  0.58668215  0.94120199     0.82600
N876        N  0.07464242  0.59712448  0.92712488    -0.79900
O877        O  0.26757241  0.16896149  0.75466196    -0.88500
C878        C  0.29845199  0.23192436  0.75866773     0.87500
Mg879      Mg  0.24959192  0.15791731  0.72431061     1.58100
O880        O  0.24746027  0.22716086  0.79096667    -0.88200
O881        O  0.26089161  0.17443164  0.79173161    -0.75600
C882        C  0.18468792  0.24925499  0.69672547     0.92600
O883        O  0.29086558  0.19901681  0.71465821    -0.75400
O884        O  0.19153827  0.23021070  0.68792278    -0.82900
Mg885      Mg  0.30147395  0.18266355  0.74955335     1.58000
C886        C  0.19676919  0.27574116  0.79061300     0.92500
O887        O  0.31443730  0.16494899  0.78332244    -0.81100
H888        H  0.22877423  0.21121795  0.81543771    -0.06500
C889        C  0.24153116  0.25648871  0.72765139     0.87400
O890        O  0.21490102  0.16800049  0.74160851    -0.75700
O891        O  0.29112900  0.21349197  0.76689253    -0.88400
O892        O  0.21837515  0.27355247  0.79500264    -0.81200
C893        C  0.29236302  0.26457047  0.81494890     0.92600
C894        C  0.31745514  0.17004663  0.80460285     0.92500
Mg895      Mg  0.19996122  0.23608463  0.75191457     1.58000
O896        O  0.18788044  0.25376960  0.71811028    -0.81200
O897        O  0.21028473  0.21988183  0.78683336    -0.75400
O898        O  0.29639611  0.24295544  0.81250769    -0.81200
O899        O  0.31329009  0.15147227  0.72956790    -0.82900
O900        O  0.20453894  0.17516188  0.68904935    -0.81300
C901        C  0.22893764  0.21936066  0.79858150     0.86900
O902        O  0.21014310  0.20513788  0.73446300    -0.88400
O903        O  0.23394646  0.24970024  0.74656973    -0.88500
O904        O  0.24000455  0.24427815  0.70934951    -0.75600
Mg905      Mg  0.27805276  0.20924947  0.80113700     1.58000
O906        O  0.27380284  0.27372985  0.80720033    -0.82900
H907        H  0.25100974  0.14560250  0.77420955    -0.06700
O908        O  0.25369799  0.19180149  0.71030090    -0.88200
H909        H  0.27244176  0.20815325  0.68614235    -0.06500
H910        H  0.18648095  0.18633101  0.75149520    -0.06700
C911        C  0.27222688  0.19976898  0.70288045     0.86900
C912        C  0.25970859  0.16217582  0.77345219     0.87500
C913        C  0.20302600  0.18659790  0.74266719     0.87500
H914        H  0.25021408  0.27306369  0.72676666    -0.06700
O915        O  0.28669793  0.25057976  0.75952639    -0.75700
Mg916      Mg  0.22286091  0.20936812  0.70003284     1.58000
H917        H  0.31504530  0.23201856  0.74992634    -0.06700
C918        C  0.30507727  0.14420964  0.71049922     0.92500
O919        O  0.22845863  0.14534027  0.69375397    -0.82900
C920        C  0.20936318  0.15367821  0.68651381     0.92600
O921        O  0.30928065  0.18871183  0.81305012    -0.82900
Mg922      Mg  0.25216017  0.26101841  0.77670784     1.58200
O923        O  0.28357636  0.14635690  0.70558174    -0.81200
O924        O  0.18806402  0.26742691  0.77216033    -0.82900
O925        O  0.24443110  0.69426842  0.21095847    -0.88500
C926        C  0.24042501  0.66207999  0.27301024     0.87500
Mg927      Mg  0.27483648  0.71266988  0.20052089     1.58100
O928        O  0.20777614  0.71265460  0.26885738    -0.88200
O929        O  0.20711632  0.70021614  0.21619858    -0.75600
C930        C  0.30180647  0.77613846  0.29305620     0.92600
O931        O  0.28443317  0.67010845  0.24019749    -0.75400
O932        O  0.31054059  0.76866023  0.27420438    -0.82900
Mg933      Mg  0.24955268  0.65990788  0.22337167     1.58000
C934        C  0.20659136  0.76288797  0.31765620     0.92500
O935        O  0.21546452  0.64823013  0.20498133    -0.81100
H936        H  0.18368839  0.73157715  0.25262723    -0.06500
C937        C  0.27067111  0.71860806  0.29912842     0.87400
O938        O  0.25743590  0.74700506  0.21135948    -0.75700
O939        O  0.23202400  0.66927985  0.25459999    -0.88400
O940        O  0.20215147  0.74137701  0.31478594    -0.81200
C941        C  0.18387334  0.66698989  0.30585858     0.92600
C942        C  0.19406797  0.64504448  0.20984056     0.92500
Mg943      Mg  0.24659948  0.76059985  0.27945527     1.58000
O944        O  0.28034459  0.77320807  0.29772686    -0.81200
O945        O  0.21197748  0.75000472  0.26251083    -0.75400
O946        O  0.18647362  0.66293034  0.28425776    -0.81200
O947        O  0.27012729  0.64892394  0.19175305    -0.82900
O948        O  0.31042073  0.75730836  0.21888997    -0.81300
C949        C  0.20033467  0.73130008  0.26121108     0.86900
O950        O  0.26450010  0.75111665  0.24852905    -0.88400
O951        O  0.25183528  0.72643454  0.29235805    -0.88500
O952        O  0.28910039  0.72016033  0.28703763    -0.75600
Mg953      Mg  0.19764560  0.68221608  0.25063781     1.58000
O954        O  0.19103453  0.68583564  0.31480961    -0.82900
H955        H  0.22487730  0.71109929  0.18782239    -0.06700
O956        O  0.28863960  0.70755552  0.23429392    -0.88200
H957        H  0.31281101  0.68839336  0.25014271    -0.06500
H958        H  0.24749258  0.77506056  0.23012021    -0.06700
C959        C  0.29610312  0.68880053  0.24168175     0.86900
C960        C  0.22557387  0.70203087  0.20418559     0.87500
C961        C  0.25634830  0.75854321  0.23011972     0.87500
H962        H  0.27134634  0.70962082  0.31553850    -0.06700
O963        O  0.23925391  0.67366200  0.29176177    -0.75700
Mg964      Mg  0.29880867  0.73801487  0.25260983     1.58000
H965        H  0.24955047  0.64570887  0.27302450    -0.06700
C966        C  0.28922266  0.65766331  0.18501202     0.92500
O967        O  0.30554269  0.73428297  0.18851478    -0.82900
C968        C  0.31302085  0.75309619  0.19731304     0.92600
O969        O  0.18575322  0.65145835  0.22925065    -0.82900
Mg970      Mg  0.22147065  0.70784223  0.30269876     1.58200
O971        O  0.29364806  0.67913345  0.18820011    -0.81200
O972        O  0.22571380  0.77153652  0.31076613    -0.82900
O973        O  0.76957134  0.21787688  0.28860988    -0.88500
C974        C  0.80049379  0.22184914  0.22588601     0.87500
Mg975      Mg  0.75162985  0.18767113  0.29944845     1.58100
O976        O  0.74918889  0.25349671  0.23017515    -0.88200
O977        O  0.76208978  0.25479130  0.28292242    -0.75600
C978        C  0.68677550  0.15904994  0.20886829     0.92600
O979        O  0.79342897  0.17798703  0.25887360    -0.75400
O980        O  0.69346709  0.15152725  0.22842684    -0.82900
Mg981      Mg  0.80361235  0.21301676  0.27533401     1.58000
C982        C  0.69876666  0.25317769  0.18121764     0.92500
O983        O  0.81504817  0.24727578  0.29334616    -0.81100
H984        H  0.73024249  0.27833192  0.24524409    -0.06500
C985        C  0.74375943  0.19022127  0.20073764     0.87400
O986        O  0.71711307  0.20514173  0.28877771    -0.75700
O987        O  0.79324544  0.23020470  0.24431032    -0.88400
O988        O  0.72022571  0.25804921  0.18407414    -0.81200
C989        C  0.79421419  0.27806592  0.19321410     0.92600
C990        C  0.81724926  0.26875157  0.28844475     0.92500
Mg991      Mg  0.70191149  0.21452660  0.22037313     1.58000
O992        O  0.69000699  0.18017264  0.20310388    -0.81200
O993        O  0.71177250  0.24979427  0.23621472    -0.75400
O994        O  0.79806441  0.27562099  0.21482036    -0.81200
O995        O  0.81557149  0.19272698  0.30673019    -0.82900
O996        O  0.70597894  0.15362765  0.28257942    -0.81300
C997        C  0.73051845  0.26136782  0.23732356     0.86900
O998        O  0.71233486  0.19788986  0.25171766    -0.88400
O999        O  0.73602614  0.20920859  0.20720983    -0.88500
O1000       O  0.74227091  0.17206319  0.21323340    -0.75600
Mg1001     Mg  0.77943314  0.26424638  0.24829780     1.58000
O1002       O  0.77573086  0.27036205  0.18391929    -0.82900
H1003       H  0.75259049  0.23719661  0.31184625    -0.06700
O1004       O  0.75611327  0.17370963  0.26566260    -0.88200
H1005       H  0.77499566  0.14952929  0.24946316    -0.06500
H1006       H  0.68897016  0.21551668  0.27034951    -0.06700
C1007       C  0.77472986  0.16626249  0.25786295     0.86900
C1008       C  0.76133824  0.23655314  0.29529447     0.87500
C1009       C  0.70534709  0.20638461  0.27015716     0.87500
H1010       H  0.75249892  0.18914637  0.18420232    -0.06700
O1011       O  0.78873301  0.22259997  0.20723833    -0.75700
Mg1012     Mg  0.72498130  0.16348497  0.24836285     1.58000
H1013       H  0.81706856  0.21307726  0.22578954    -0.06700
C1014       C  0.80706006  0.17397339  0.31467991     0.92500
O1015       O  0.73038681  0.15717015  0.31198356    -0.82900
C1016       C  0.71074845  0.15105570  0.30399689     0.92600
O1017       O  0.81001304  0.27687713  0.26927528    -0.82900
Mg1018     Mg  0.75419024  0.23962240  0.19635741     1.58200
O1019       O  0.78558172  0.16917129  0.31191931    -0.81200
O1020       O  0.69029032  0.23418087  0.18851265    -0.82900
C1021       C  0.08116248  0.05366191  0.37732127     0.80100
N1022       N  0.06964100  0.03747192  0.36447189    -0.78200
C1023       C  0.05523778  0.02201541  0.37513261     0.82500
N1024       N  0.05252182  0.02265139  0.39845452    -0.78200
C1025       C  0.06363740  0.03876208  0.41128049     0.82600
N1026       N  0.07785071  0.05403098  0.40059966    -0.79900
C1027       C  0.08489716  0.04887933  0.61978855     0.80100
N1028       N  0.07119050  0.03413629  0.63225851    -0.78200
C1029       C  0.05461222  0.02132576  0.62140412     0.82500
N1030       N  0.05198913  0.02297091  0.59817657    -0.78200
C1031       C  0.06552625  0.03731400  0.58552735     0.82600
N1032       N  0.08189562  0.05010517  0.59645618    -0.79900
O1033       O  0.20731601  0.23043324  0.24486877    -0.88500
C1034       C  0.26921842  0.26236685  0.24061468     0.87500
Mg1035     Mg  0.19719128  0.21194331  0.27519316     1.58100
O1036       O  0.26516765  0.21110964  0.20870736    -0.88200
O1037       O  0.21222709  0.22413495  0.20767262    -0.75600
C1038       C  0.28957658  0.14875718  0.30290862     0.92600
O1039       O  0.23717989  0.25425265  0.28459435    -0.75400
O1040       O  0.27067556  0.15579373  0.31195655    -0.82900
Mg1041     Mg  0.22001071  0.26476445  0.25005656     1.58000
C1042       C  0.31560418  0.16170686  0.20932940     0.92500
O1043       O  0.20172458  0.27720182  0.21600901    -0.81100
H1044       H  0.24921586  0.19202239  0.18462571    -0.06500
C1045       C  0.29561306  0.20549604  0.27166336     0.87400
O1046       O  0.20769770  0.17751506  0.25799494    -0.75700
O1047       O  0.25084720  0.25502941  0.23228498    -0.88400
O1048       O  0.31238659  0.18310577  0.20469764    -0.81200
C1049       C  0.30237195  0.25641864  0.18503440     0.92600
C1050       C  0.20707081  0.28033569  0.19471523     0.92500
Mg1051     Mg  0.27568618  0.16362821  0.24783793     1.58000
O1052       O  0.29378486  0.15180446  0.28144290    -0.81200
O1053       O  0.25889565  0.17377257  0.21307714    -0.75400
O1054       O  0.28066406  0.26028133  0.18703643    -0.81200
O1055       O  0.18891683  0.27623387  0.27156704    -0.82900
O1056       O  0.21563397  0.16778876  0.31183046    -0.81300
C1057       C  0.25765647  0.19240547  0.20131780     0.86900
O1058       O  0.24479026  0.17308198  0.26560653    -0.88400
O1059       O  0.28834062  0.19791336  0.25299082    -0.88500
O1060       O  0.28379259  0.20400656  0.29021234    -0.75600
Mg1061     Mg  0.24693720  0.24158453  0.19821872     1.58000
O1062       O  0.31137822  0.23773606  0.19254960    -0.82900
H1063       H  0.18366075  0.21401122  0.22561866    -0.06700
O1064       O  0.23109396  0.21687476  0.28902009    -0.88200
H1065       H  0.24738666  0.23598672  0.31285297    -0.06500
H1066       H  0.22633993  0.14914862  0.24868399    -0.06700
C1067       C  0.23869005  0.23559371  0.29629275     0.86900
C1068       C  0.20024074  0.22273275  0.22614957     0.87500
C1069       C  0.22637377  0.16574602  0.25735077     0.87500
H1070       H  0.31220959  0.21419160  0.27208858    -0.06700
O1071       O  0.28791530  0.25064614  0.23996474    -0.75700
Mg1072     Mg  0.24922121  0.18649614  0.29980113     1.58000
H1073       H  0.26920237  0.27894034  0.24932639    -0.06700
C1074       C  0.18235981  0.26680160  0.29043380     0.92500
O1075       O  0.18528231  0.19075105  0.30584875    -0.82900
C1076       C  0.19407916  0.17235360  0.31421395     0.92600
O1077       O  0.22595465  0.27261237  0.18624256    -0.82900
Mg1078     Mg  0.29898239  0.21631195  0.22290362     1.58200
O1079       O  0.18523761  0.24517283  0.29389108    -0.81200
O1080       O  0.30727908  0.15248707  0.22752337    -0.82900
C1081       C  0.09801065  0.07056959  0.36702383    -0.20000
C1082       C  0.10365503  0.07142658  0.34312669     0.36200
C1083       C  0.12047422  0.08739770  0.33525533    -0.26000
C1084       C  0.13136759  0.10276363  0.35058373     0.02600
C1085       C  0.12575162  0.10211408  0.37420643     0.27400
C1086       C  0.10922614  0.08618708  0.38214106    -0.25100
N1087       N  0.09238255  0.05633249  0.32689021    -0.82500
H1088       H  0.12479459  0.08822772  0.31701392     0.13200
C1089       C  0.14784758  0.12037865  0.34175547     0.02600
N1090       N  0.13688461  0.11775401  0.39006179    -0.81100
H1091       H  0.10526366  0.08606322  0.40045834     0.18100
C1092       C  0.14057242  0.14347632  0.34037277    -0.25900
C1093       C  0.15562321  0.16098203  0.33259081     0.36100
C1094       C  0.17851701  0.15516702  0.32568891    -0.20000
C1095       C  0.18592270  0.13198813  0.32785409    -0.25200
C1096       C  0.17083013  0.11457695  0.33591932     0.27500
H1097       H  0.12299674  0.14783320  0.34544682     0.13200
N1098       N  0.14763633  0.18457512  0.33166202    -0.82500
H1099       H  0.20337406  0.12727661  0.32271206     0.18100
N1100       N  0.17865776  0.09102447  0.33809242    -0.81100
H1101       H  0.13031460  0.18574836  0.33692400     0.33700
H1102       H  0.15732084  0.19406825  0.34364676     0.38200
H1103       H  0.19600127  0.08958452  0.33297398     0.33700
H1104       H  0.17807455  0.08665844  0.35565221     0.30400
H1105       H  0.13066672  0.11528823  0.40689304     0.33700
H1106       H  0.15453691  0.11359964  0.39037206     0.30400
H1107       H  0.07500412  0.06143122  0.32592857     0.38200
H1108       H  0.09927281  0.05857562  0.31028796     0.33700
C1109       C  0.06380169  0.03761225  0.55990211    -0.20000
C1110       C  0.04323137  0.03106067  0.54822420     0.36200
C1111       C  0.04296902  0.03062420  0.52390979    -0.26000
C1112       C  0.06261232  0.03688203  0.51109202     0.02600
C1113       C  0.08310962  0.04334147  0.52259872     0.27400
C1114       C  0.08345682  0.04381608  0.54686876    -0.25100
N1115       N  0.02264038  0.02513593  0.56099231    -0.82500
H1116       H  0.02731043  0.02568631  0.51484610     0.13200
C1117       C  0.06144041  0.03715951  0.48554684     0.02600
N1118       N  0.10355747  0.04909747  0.50952627    -0.81100
H1119       H  0.09936221  0.04856561  0.55561914     0.18100
C1120       C  0.06365113  0.05836700  0.47397152    -0.25900
C1121       C  0.06364569  0.05942860  0.44971907     0.36100
C1122       C  0.06162805  0.03872676  0.43680842    -0.20000
C1123       C  0.05863026  0.01756163  0.44849031    -0.25200
C1124       C  0.05866725  0.01656374  0.47279003     0.27500
H1125       H  0.06543954  0.07414635  0.48397410     0.13200
N1126       N  0.06552314  0.08144573  0.43820077    -0.82500
H1127       H  0.05707769  0.00165441  0.43865775     0.18100
N1128       N  0.05644216  0.99472952  0.48457643    -0.81100
H1129       H  0.06704101  0.09488529  0.45023173     0.33700
H1130       H  0.05001509  0.08426653  0.42926926     0.38200
H1131       H  0.05445453  0.98124264  0.47267467     0.33700
H1132       H  0.07199165  0.99161835  0.49333934     0.30400
H1133       H  0.11720087  0.05349331  0.52058338     0.33700
H1134       H  0.10875192  0.03419610  0.50062321     0.30400
H1135       H  0.01684179  0.04014598  0.56932476     0.38200
H1136       H  0.00937788  0.01991362  0.54983881     0.33700
C1137       C  0.19171264  0.13789395  0.67602369    -0.20000
C1138       C  0.19720753  0.11524448  0.66808954     0.36200
C1139       C  0.17947936  0.10095278  0.65934009    -0.26000
C1140       C  0.15640550  0.10848069  0.65872317     0.02600
C1141       C  0.15077379  0.13082885  0.66661791     0.27400
C1142       C  0.16842914  0.14530771  0.67511840    -0.25100
N1143       N  0.22067205  0.10680128  0.66861177    -0.82500
H1144       H  0.18361984  0.08375300  0.65304116     0.13200
C1145       C  0.13841767  0.09313560  0.64872393     0.02600
N1146       N  0.12709930  0.13864616  0.66606726    -0.81100
H1147       H  0.16384803  0.16239464  0.68139212     0.18100
C1148       C  0.12493354  0.07938943  0.66355676    -0.25900
C1149       C  0.10749088  0.06476774  0.65497768     0.36100
C1150       C  0.10328434  0.06365392  0.63074993    -0.20000
C1151       C  0.11711051  0.07755576  0.61607684    -0.25200
C1152       C  0.13435152  0.09227722  0.62465514     0.27500
H1153       H  0.12795552  0.08010183  0.68205698     0.13200
N1154       N  0.09445741  0.05154084  0.67143736    -0.82500
H1155       H  0.11455774  0.07726059  0.59751143     0.18100
N1156       N  0.14725145  0.10605836  0.60833374    -0.81100
H1157       H  0.09667198  0.03392422  0.66788480     0.33700
H1158       H  0.07694438  0.05601180  0.67005476     0.38200
H1159       H  0.13558295  0.11741421  0.60037919     0.33700
H1160       H  0.15971063  0.11636153  0.61638199     0.30400
H1161       H  0.12576023  0.15541211  0.67278520     0.33700
H1162       H  0.12206193  0.13964253  0.64871779     0.30400
H1163       H  0.22476138  0.10331043  0.68588690     0.38200
H1164       H  0.22194977  0.09092724  0.65998480     0.33700
C1165       C  0.09966737  0.33008746  0.89121791    -0.20000
C1166       C  0.10290524  0.34123349  0.86961384     0.36200
C1167       C  0.11849976  0.33189973  0.85342419    -0.26000
C1168       C  0.13072215  0.31145583  0.85805809     0.02600
C1169       C  0.12679577  0.29968200  0.87913935     0.27400
C1170       C  0.11127675  0.30911488  0.89552880    -0.25100
N1171       N  0.09032875  0.36202976  0.86414331    -0.82500
H1172       H  0.12137691  0.34077816  0.83713649     0.13200
C1173       C  0.14769421  0.30284503  0.84062499     0.02600
N1174       N  0.13872977  0.27832928  0.88385677    -0.81100
H1175       H  0.10882049  0.30046711  0.91200018     0.18100
C1176       C  0.17124339  0.30125413  0.84645424    -0.25900
C1177       C  0.18786267  0.29323091  0.83041718     0.36100
C1178       C  0.18075897  0.28686794  0.80777291    -0.20000
C1179       C  0.15713869  0.28927135  0.80190896    -0.25200
C1180       C  0.14060345  0.29698271  0.81806386     0.27500
H1181       H  0.17664002  0.30613460  0.86373529     0.13200
N1182       N  0.21174192  0.29131644  0.83730337    -0.82500
H1183       H  0.15130715  0.28456034  0.78473514     0.18100
N1184       N  0.11652994  0.29854064  0.81176077    -0.81100
H1185       H  0.21416084  0.29818202  0.85386914     0.33700
H1186       H  0.21564240  0.27366838  0.83857913     0.38200
H1187       H  0.11414049  0.29371337  0.79448846     0.33700
H1188       H  0.10741646  0.28652878  0.82181748     0.30400
H1189       H  0.13403849  0.27191292  0.90013097     0.33700
H1190       H  0.13314607  0.26614008  0.87170157     0.30400
H1191       H  0.07271757  0.35777604  0.86349164     0.38200
H1192       H  0.09483654  0.36815239  0.84770499     0.33700
C1193       C  0.07559106  0.40116086  0.93140720    -0.20000
C1194       C  0.07545726  0.41536697  0.91157906     0.36200
C1195       C  0.07581171  0.43946042  0.91403225    -0.26000
C1196       C  0.07637414  0.44983827  0.93595671     0.02600
C1197       C  0.07628119  0.43566502  0.95600940     0.27400
C1198       C  0.07553376  0.41151280  0.95341507    -0.25100
N1199       N  0.07421391  0.40547753  0.88889866    -0.82500
H1200       H  0.07549871  0.45020856  0.89863536     0.13200
C1201       C  0.07682826  0.47544801  0.93694746     0.02600
N1202       N  0.07729699  0.44495597  0.97910656    -0.81100
H1203       H  0.07552419  0.40073237  0.96878707     0.18100
C1204       C  0.05782591  0.48741819  0.94619554    -0.25900
C1205       C  0.05688018  0.51176283  0.94581565     0.36100
C1206       C  0.07526809  0.52439478  0.93536993    -0.20000
C1207       C  0.09438512  0.51211942  0.92637849    -0.25200
C1208       C  0.09536225  0.48787347  0.92710742     0.27500
H1209       H  0.04355392  0.47763639  0.95353344     0.13200
N1210       N  0.03702116  0.52341484  0.95541060    -0.82500
H1211       H  0.10870074  0.52141339  0.91854718     0.18100
N1212       N  0.11495395  0.47572588  0.91756353    -0.81100
H1213       H  0.02448588  0.51145736  0.96074946     0.33700
H1214       H  0.04246625  0.53191936  0.97041537     0.38200
H1215       H  0.12701936  0.48737191  0.91068125     0.33700
H1216       H  0.12322957  0.46710374  0.93116386     0.30400
H1217       H  0.09237052  0.43858502  0.98689269     0.33700
H1218       H  0.07897599  0.46293885  0.97907494     0.30400
H1219       H  0.08859804  0.41119590  0.87945201     0.38200
H1220       H  0.05928442  0.41179588  0.88080288     0.33700
C1221       C  0.10874007  0.59423155  0.90045579    -0.20000
C1222       C  0.10503465  0.61443683  0.88709158     0.36200
C1223       C  0.12221832  0.62161108  0.87123418    -0.26000
C1224       C  0.14295718  0.60908271  0.86848598     0.02600
C1225       C  0.14671406  0.58909408  0.88197401     0.27400
C1226       C  0.12973912  0.58205155  0.89786804    -0.25100
N1227       N  0.08365186  0.62711772  0.88894838    -0.82500
H1228       H  0.11949120  0.63711602  0.86100754     0.13200
C1229       C  0.16092090  0.61727039  0.85186950     0.02600
N1230       N  0.16761501  0.57575797  0.87916558    -0.81100
H1231       H  0.13284039  0.56660854  0.90808179     0.18100
C1232       C  0.18342366  0.62155234  0.85994869    -0.25900
C1233       C  0.20100361  0.62940638  0.84504750     0.36100
C1234       C  0.19576402  0.63403658  0.82152335    -0.20000
C1235       C  0.17333821  0.62899619  0.81331643    -0.25200
C1236       C  0.15594822  0.62049946  0.82819508     0.27500
H1237       H  0.18726156  0.61886104  0.87810886     0.13200
N1238       N  0.22405811  0.63285138  0.85386894    -0.82500
H1239       H  0.16910596  0.63227631  0.79534925     0.18100
N1240       N  0.13323566  0.61525942  0.81940401    -0.81100
H1241       H  0.22481629  0.62901902  0.87154362     0.33700
H1242       H  0.23491751  0.62094092  0.84556808     0.38200
H1243       H  0.13236334  0.61867327  0.80165096     0.33700
H1244       H  0.13057740  0.59745022  0.82140424     0.30400
H1245       H  0.16777332  0.56160403  0.89046902     0.33700
H1246       H  0.16759081  0.56897996  0.86238662     0.30400
H1247       H  0.08351955  0.63521139  0.90512652     0.38200
H1248       H  0.08309332  0.64044263  0.87669094     0.33700
C1249       C  0.63124625  0.85620360  0.90257002    -0.20000
C1250       C  0.65285969  0.86055346  0.89174399     0.36200
C1251       C  0.66054415  0.84577287  0.87380765    -0.26000
C1252       C  0.64718842  0.82676602  0.86646258     0.02600
C1253       C  0.62586075  0.82224699  0.87748524     0.27400
C1254       C  0.61831806  0.83675619  0.89545112    -0.25100
N1255       N  0.66659109  0.88024258  0.89831951    -0.82500
H1256       H  0.67704968  0.84908977  0.86545420     0.13200
C1257       C  0.65555094  0.81167018  0.84720442     0.02600
N1258       N  0.61163207  0.80320827  0.87001520    -0.81100
H1259       H  0.60183965  0.83299153  0.90365649     0.18100
C1260       C  0.65785467  0.78776050  0.85091172    -0.25900
C1261       C  0.66511203  0.77273219  0.83313064     0.36100
C1262       C  0.67109786  0.78192896  0.81110053    -0.20000
C1263       C  0.66842406  0.80593425  0.80742739    -0.25200
C1264       C  0.66048022  0.82078253  0.82509510     0.27500
H1265       H  0.65388378  0.78075586  0.86786720     0.13200
N1266       N  0.66661796  0.74826411  0.83762543    -0.82500
H1267       H  0.67269012  0.81328071  0.79070224     0.18100
N1268       N  0.65725972  0.84508103  0.82063030    -0.81100
H1269       H  0.66253345  0.74460566  0.85488506     0.33700
H1270       H  0.65389346  0.74013989  0.82763112     0.38200
H1271       H  0.66170846  0.84907509  0.80353809     0.33700
H1272       H  0.63956589  0.84867885  0.82237663     0.30400
H1273       H  0.59649527  0.80216336  0.87995108     0.33700
H1274       H  0.60642423  0.80663012  0.85302505     0.30400
H1275       H  0.67296548  0.87705517  0.91494734     0.38200
H1276       H  0.68112996  0.88175712  0.88758527     0.33700
C1277       C  0.36355816  0.87148316  0.89493743    -0.20000
C1278       C  0.37304686  0.86913491  0.87247458     0.36200
C1279       C  0.36326314  0.85328723  0.85685824    -0.26000
C1280       C  0.34397355  0.83984200  0.86294037     0.02600
C1281       C  0.33357183  0.84310715  0.88499128     0.27400
C1282       C  0.34355656  0.85885863  0.90072079    -0.25100
N1283       N  0.39276489  0.88277791  0.86565141    -0.82500
H1284       H  0.37094374  0.85113113  0.83985736     0.13200
C1285       C  0.33541708  0.82265201  0.84572617     0.02600
N1286       N  0.31314682  0.83069861  0.89211247    -0.81100
H1287       H  0.33611446  0.86058643  0.91786974     0.18100
C1288       C  0.33931449  0.79891790  0.84931405    -0.25900
C1289       C  0.33268021  0.78229544  0.83266160     0.36100
C1290       C  0.32171949  0.78960455  0.81191422    -0.20000
C1291       C  0.31820304  0.81353210  0.80841591    -0.25200
C1292       C  0.32485051  0.83001599  0.82505499     0.27500
H1293       H  0.34783901  0.79339933  0.86508780     0.13200
N1294       N  0.33714336  0.75813921  0.83681389    -0.82500
H1295       H  0.30972258  0.81950327  0.79279795     0.18100
N1296       N  0.32082801  0.85428736  0.82111690    -0.81100
H1297       H  0.34483275  0.75573199  0.85301914     0.33700
H1298       H  0.34928901  0.75264688  0.82452557     0.38200
H1299       H  0.31298924  0.85693918  0.80502465     0.33700
H1300       H  0.30900293  0.85998664  0.83362123     0.30400
H1301       H  0.30007879  0.84291871  0.89506754     0.33700
H1302       H  0.30703030  0.81985125  0.87904198     0.30400
H1303       H  0.39773920  0.87890707  0.84867683     0.38200
H1304       H  0.38766141  0.90016501  0.86574743     0.33700
C1305       C  0.56020444  0.88535255  0.93883932    -0.20000
C1306       C  0.54736980  0.90498158  0.94610050     0.36200
C1307       C  0.52303621  0.90401308  0.94614913    -0.26000
C1308       C  0.51129629  0.88414925  0.93866395     0.02600
C1309       C  0.52394277  0.86453506  0.93159202     0.27400
C1310       C  0.54826870  0.86531675  0.93176743    -0.25100
N1311       N  0.55892567  0.92606640  0.95261145    -0.82500
H1312       H  0.51310067  0.91912244  0.95126539     0.13200
C1313       C  0.48574164  0.88484068  0.93694072     0.02600
N1314       N  0.51199146  0.84399849  0.92415112    -0.81100
H1315       H  0.55794790  0.85017158  0.92631023     0.18100
C1316       C  0.47547628  0.88432476  0.91498761    -0.25900
C1317       C  0.45144777  0.88721931  0.91234434     0.36100
C1318       C  0.43742182  0.89040294  0.93218185    -0.20000
C1319       C  0.44776361  0.89045566  0.95419919    -0.25200
C1320       C  0.47180432  0.88756800  0.95677409     0.27500
H1321       H  0.48639911  0.88243183  0.89981911     0.13200
N1322       N  0.44142440  0.88774124  0.88958561    -0.82500
H1323       H  0.43702617  0.89260438  0.96946213     0.18100
N1324       N  0.48218609  0.88745058  0.97938326    -0.81100
H1325       H  0.45411188  0.88494961  0.87693801     0.33700
H1326       H  0.43497028  0.90445340  0.88683979     0.38200
H1327       H  0.46954375  0.88970867  0.99218248     0.33700
H1328       H  0.48937761  0.87102328  0.98202086     0.30400
H1329       H  0.52383502  0.83113215  0.91935669     0.33700
H1330       H  0.50277239  0.83755317  0.93835928     0.30400
H1331       H  0.56706321  0.93265985  0.93782164     0.38200
H1332       H  0.54692559  0.93858985  0.95789655     0.33700
C1333       C  0.89294490  0.86143244  0.63203583    -0.20000
C1334       C  0.87108818  0.85853411  0.62139849     0.36200
C1335       C  0.85530693  0.84215306  0.63006284    -0.26000
C1336       C  0.86087947  0.82832382  0.64920136     0.02600
C1337       C  0.88230875  0.83177165  0.66053750     0.27400
C1338       C  0.89810742  0.84838849  0.65190856    -0.25100
N1339       N  0.86483612  0.87220856  0.60167562    -0.82500
H1340       H  0.83881569  0.83979669  0.62139855     0.13200
C1341       C  0.84441219  0.80983166  0.65665867     0.02600
N1342       N  0.88803000  0.81813574  0.68055122    -0.81100
H1343       H  0.91485069  0.85047158  0.66013501     0.18100
C1344       C  0.85107442  0.78651463  0.65488888    -0.25900
C1345       C  0.83607686  0.76847113  0.66173593     0.36100
C1346       C  0.81389121  0.77385154  0.67088317    -0.20000
C1347       C  0.80703713  0.79726712  0.67188886    -0.25200
C1348       C  0.82206268  0.81525040  0.66498403     0.27500
H1349       H  0.86808772  0.78239581  0.64802904     0.13200
N1350       N  0.84337403  0.74475865  0.65942988    -0.82500
H1351       H  0.79019049  0.80168764  0.67894920     0.18100
N1352       N  0.81492368  0.83904461  0.66689118    -0.81100
H1353       H  0.86018336  0.74382907  0.65267172     0.33700
H1354       H  0.83248299  0.73688351  0.64730858     0.38200
H1355       H  0.79799480  0.84014584  0.67331398     0.33700
H1356       H  0.82564265  0.84700218  0.67911112     0.30400
H1357       H  0.90442208  0.82264933  0.68680611     0.33700
H1358       H  0.87612663  0.82231064  0.69357072     0.30400
H1359       H  0.84972600  0.88138663  0.60571889     0.38200
H1360       H  0.86104730  0.86094125  0.58803215     0.33700
C1361       C  0.90173849  0.85499723  0.36902227    -0.20000
C1362       C  0.89819341  0.83301839  0.37933568     0.36200
C1363       C  0.88038397  0.81851460  0.37142643    -0.26000
C1364       C  0.86605237  0.82513702  0.35301278     0.02600
C1365       C  0.87006128  0.84666604  0.34198434     0.27400
C1366       C  0.88783579  0.86138784  0.35011639    -0.25100
N1367       N  0.91279756  0.82517458  0.39780000    -0.82500
H1368       H  0.87759562  0.80200403  0.37993238     0.13200
C1369       C  0.84697765  0.80933903  0.34549757     0.02600
N1370       N  0.85600595  0.85350680  0.32262360    -0.81100
H1371       H  0.89040400  0.87815081  0.34206899     0.18100
C1372       C  0.82402737  0.81745182  0.34519898    -0.25900
C1373       C  0.80566413  0.80352904  0.33709832     0.36100
C1374       C  0.81028146  0.78063873  0.32937909    -0.20000
C1375       C  0.83318492  0.77222230  0.33093482    -0.25200
C1376       C  0.85151443  0.78630307  0.33869145     0.27500
H1377       H  0.82048073  0.83495666  0.35098829     0.13200
N1378       N  0.78246983  0.81268747  0.33681266    -0.82500
H1379       H  0.83708067  0.75477486  0.32521889     0.18100
N1380       N  0.87483222  0.77744994  0.33912734    -0.81100
H1381       H  0.78177827  0.82857248  0.34548278     0.33700
H1382       H  0.77832005  0.81633885  0.31958791     0.38200
H1383       H  0.87524999  0.76016741  0.33372418     0.33700
H1384       H  0.88454783  0.78689857  0.32709557     0.30400
H1385       H  0.86105467  0.86980475  0.31653003     0.33700
H1386       H  0.85914145  0.84175490  0.30921125     0.30400
H1387       H  0.90231592  0.82164482  0.41216002     0.38200
H1388       H  0.92066928  0.80968576  0.39264161     0.33700
C1389       C  0.93354708  0.88561756  0.56141567    -0.20000
C1390       C  0.91404240  0.88763318  0.54695394     0.36200
C1391       C  0.91688341  0.88709129  0.52291844    -0.26000
C1392       C  0.93891090  0.88453542  0.51295291     0.02600
C1393       C  0.95863152  0.88248492  0.52739511     0.27400
C1394       C  0.95569023  0.88338980  0.55149122    -0.25100
N1395       N  0.89139780  0.89103756  0.55658413    -0.82500
H1396       H  0.90177275  0.88885994  0.51190706     0.13200
C1397       C  0.94040739  0.88413833  0.48744518     0.02600
N1398       N  0.98167745  0.87922817  0.51837026    -0.81100
H1399       H  0.97077702  0.88186770  0.56256307     0.18100
C1400       C  0.94957172  0.90328183  0.47570424    -0.25900
C1401       C  0.94935280  0.90437629  0.45138954     0.36100
C1402       C  0.93916551  0.88598668  0.43861515    -0.20000
C1403       C  0.93059470  0.86658013  0.45068343    -0.25200
C1404       C  0.93119525  0.86545828  0.47489706     0.27500
H1405       H  0.95663364  0.91755542  0.48562895     0.13200
N1406       N  0.95884723  0.92435642  0.43990740    -0.82500
H1407       H  0.92313374  0.85220172  0.44125635     0.18100
N1408       N  0.92211357  0.84559729  0.48690164    -0.81100
H1409       H  0.96393595  0.93687742  0.45194710     0.33700
H1410       H  0.97402882  0.91906323  0.43151115     0.38200
H1411       H  0.91572647  0.83339406  0.47516291     0.33700
H1412       H  0.93591658  0.83768885  0.49557622     0.30400
H1413       H  0.98772457  0.86323575  0.52437313     0.33700
H1414       H  0.98180745  0.87821564  0.50034893     0.30400
H1415       H  0.88069187  0.87770192  0.55063775     0.38200
H1416       H  0.88485607  0.90670843  0.55026161     0.33700
C1417       C  0.89359324  0.59634859  0.89349744    -0.20000
C1418       C  0.88657949  0.61992970  0.89378279     0.36200
C1419       C  0.86946331  0.62766222  0.87827207    -0.26000
C1420       C  0.85905443  0.61250302  0.86236915     0.02600
C1421       C  0.86613239  0.58910498  0.86176055     0.27400
C1422       C  0.88333530  0.58151408  0.87700743    -0.25100
N1423       N  0.89601965  0.63636378  0.90974168    -0.82500
H1424       H  0.86409687  0.64565902  0.87873712     0.13200
C1425       C  0.84086218  0.62135514  0.84656168     0.02600
N1426       N  0.85621103  0.57242947  0.84611926    -0.81100
H1427       H  0.88841300  0.56347220  0.87599344     0.18100
C1428       C  0.84687234  0.62725517  0.82383263    -0.25900
C1429       C  0.83009362  0.63519975  0.80803059     0.36100
C1430       C  0.80655632  0.63697165  0.81510715    -0.20000
C1431       C  0.80066619  0.63054477  0.83792076    -0.25200
C1432       C  0.81755103  0.62270343  0.85364630     0.27500
H1433       H  0.86484963  0.62585575  0.81850249     0.13200
N1434       N  0.83711177  0.64192265  0.78509413    -0.82500
H1435       H  0.78280578  0.63179341  0.84363478     0.18100
N1436       N  0.81117900  0.61619898  0.87682375    -0.81100
H1437       H  0.85472669  0.63847682  0.78246100     0.33700
H1438       H  0.83524123  0.65990553  0.78388271     0.38200
H1439       H  0.79336249  0.61841492  0.87941177     0.33700
H1440       H  0.81450518  0.59848138  0.87866239     0.30400
H1441       H  0.84789888  0.55980263  0.85611713     0.33700
H1442       H  0.84349434  0.57968911  0.83553941     0.30400
H1443       H  0.89303113  0.63046615  0.92659388     0.38200
H1444       H  0.91386289  0.63769656  0.90683578     0.33700
C1445       C  0.89343025  0.33067207  0.90229001    -0.20000
C1446       C  0.87108100  0.34011634  0.89872350     0.36200
C1447       C  0.85651984  0.33086362  0.88160944    -0.26000
C1448       C  0.86368543  0.31219339  0.86781936     0.02600
C1449       C  0.88557463  0.30198042  0.87199706     0.27400
C1450       C  0.90020470  0.31128317  0.88922191    -0.25100
N1451       N  0.86302464  0.35913694  0.91249801    -0.82500
H1452       H  0.83967559  0.33868613  0.87871810     0.13200
C1453       C  0.84835499  0.30407030  0.84865932     0.02600
N1454       N  0.89292292  0.28234986  0.85856210    -0.81100
H1455       H  0.91726153  0.30386688  0.89187458     0.18100
C1456       C  0.85637061  0.30499924  0.82571382    -0.25900
C1457       C  0.84233384  0.29782465  0.80713194     0.36100
C1458       C  0.81964532  0.28955391  0.81134999    -0.20000
C1459       C  0.81152033  0.28910982  0.83437922    -0.25200
C1460       C  0.82564210  0.29607857  0.85301263     0.27500
H1461       H  0.87365711  0.31147191  0.82216923     0.13200
N1462       N  0.85119442  0.29922769  0.78401003    -0.82500
H1463       H  0.79429366  0.28255564  0.83801765     0.18100
N1464       N  0.81716915  0.29464530  0.87639131    -0.81100
H1465       H  0.85569129  0.31646840  0.78072226     0.33700
H1466       H  0.86630681  0.28924087  0.78312514     0.38200
H1467       H  0.80014057  0.28843032  0.87668482     0.33700
H1468       H  0.82730733  0.28242815  0.88512561     0.30400
H1469       H  0.90946621  0.27695485  0.86364195     0.33700
H1470       H  0.88162544  0.26867578  0.86227814     0.30400
H1471       H  0.85893162  0.37285386  0.90139684     0.38200
H1472       H  0.84780405  0.35400304  0.92091480     0.33700
C1473       C  0.92472904  0.52570554  0.92872285    -0.20000
C1474       C  0.92078556  0.51181378  0.90894732     0.36200
C1475       C  0.92055172  0.48760073  0.91122119    -0.26000
C1476       C  0.92439040  0.47705835  0.93270092     0.02600
C1477       C  0.92832969  0.49079259  0.95240456     0.27400
C1478       C  0.92867859  0.51502430  0.95021092    -0.25100
N1479       N  0.91752415  0.52225982  0.88658272    -0.82500
H1480       H  0.91767820  0.47682779  0.89613589     0.13200
C1481       C  0.92452414  0.45150798  0.93412312     0.02600
N1482       N  0.93150734  0.48001656  0.97457564    -0.81100
H1483       H  0.93154164  0.52561909  0.96542062     0.18100
C1484       C  0.94562863  0.43992432  0.93725551    -0.25900
C1485       C  0.94673500  0.41559975  0.93688672     0.36100
C1486       C  0.92612175  0.40266572  0.93359704    -0.20000
C1487       C  0.90494292  0.41445755  0.93096676    -0.25200
C1488       C  0.90394015  0.43875805  0.93132940     0.27500
H1489       H  0.96137180  0.44996088  0.93933054     0.13200
N1490       N  0.96876938  0.40412706  0.93914680    -0.82500
H1491       H  0.88906765  0.40467900  0.92874486     0.18100
N1492       N  0.88214989  0.45060943  0.92881803    -0.81100
H1493       H  0.98205744  0.41617362  0.94171695     0.33700
H1494       H  0.97231913  0.39587829  0.92342363     0.38200
H1495       H  0.86862176  0.43871850  0.92685424     0.33700
H1496       H  0.87894715  0.45953655  0.94424260     0.30400
H1497       H  0.93393365  0.49256899  0.98735030     0.33700
H1498       H  0.91600993  0.47156319  0.97864014     0.30400
H1499       H  0.91466879  0.50959692  0.87396981     0.38200
H1500       H  0.93299299  0.53059907  0.88211489     0.33700
C1501       C  0.09740970  0.85323650  0.63233736    -0.20000
C1502       C  0.10551785  0.85493612  0.65540818     0.36200
C1503       C  0.12103344  0.83803037  0.66402697    -0.26000
C1504       C  0.12886514  0.81966652  0.65006381     0.02600
C1505       C  0.12071160  0.81786591  0.62719833     0.27400
C1506       C  0.10499339  0.83438556  0.61873367    -0.25100
N1507       N  0.09844704  0.87390879  0.66988842    -0.82500
H1508       H  0.12730925  0.83931029  0.68164722     0.13200
C1509       C  0.14585895  0.80249912  0.65926674     0.02600
N1510       N  0.12879388  0.79944914  0.61247529    -0.81100
H1511       H  0.09890444  0.83257662  0.60110637     0.18100
C1512       C  0.13976202  0.77899090  0.66021420    -0.25900
C1513       C  0.15552309  0.76206951  0.66803631     0.36100
C1514       C  0.17795023  0.76883266  0.67549339    -0.20000
C1515       C  0.18408656  0.79241731  0.67410806    -0.25200
C1516       C  0.16834762  0.80924299  0.66600715     0.27500
H1517       H  0.12255490  0.77382947  0.65473961     0.13200
N1518       N  0.14873237  0.73810027  0.66839800    -0.82500
H1519       H  0.20111594  0.79789334  0.67979405     0.18100
N1520       N  0.17512824  0.83316409  0.66452238    -0.81100
H1521       H  0.13161426  0.73617960  0.66276664     0.33700
H1522       H  0.15914861  0.72932193  0.65643985     0.38200
H1523       H  0.19218338  0.83531881  0.67025125     0.33700
H1524       H  0.17495222  0.83784824  0.64703764     0.30400
H1525       H  0.12107224  0.80046606  0.59614321     0.33700
H1526       H  0.14659487  0.80182672  0.60993219     0.30400
H1527       H  0.10549833  0.88904281  0.66284634     0.38200
H1528       H  0.10551314  0.87221258  0.68646054     0.33700
C1529       C  0.10281447  0.85974284  0.36630235    -0.20000
C1530       C  0.12491327  0.85799154  0.37662638     0.36200
C1531       C  0.14132139  0.84242231  0.36779414    -0.26000
C1532       C  0.13627153  0.82844213  0.34864454     0.02600
C1533       C  0.11448620  0.83066404  0.33766266     0.27400
C1534       C  0.09794078  0.84639274  0.34658250    -0.25100
N1535       N  0.13084410  0.87217446  0.39608355    -0.82500
H1536       H  0.15806492  0.84100302  0.37618727     0.13200
C1537       C  0.15412926  0.81160508  0.34058907     0.02600
N1538       N  0.10925100  0.81686653  0.31764841    -0.81100
H1539       H  0.08099437  0.84769742  0.33860486     0.18100
C1540       C  0.14955032  0.78773798  0.34145080    -0.25900
C1541       C  0.16657342  0.77128823  0.33518931     0.36100
C1542       C  0.18869820  0.77893158  0.32757381    -0.20000
C1543       C  0.19316866  0.80295226  0.32714779    -0.25200
C1544       C  0.17618333  0.81925695  0.33341361     0.27500
H1545       H  0.13269140  0.78192707  0.34738872     0.13200
N1546       N  0.16131805  0.74697545  0.33647738    -0.82500
H1547       H  0.20987128  0.80923454  0.32128837     0.18100
N1548       N  0.18113690  0.84365148  0.33223067    -0.81100
H1549       H  0.14416710  0.74439183  0.34178841     0.33700
H1550       H  0.17181322  0.73980884  0.34937732     0.38200
H1551       H  0.19818296  0.84647929  0.32671729     0.33700
H1552       H  0.17032623  0.85084430  0.31960810     0.30400
H1553       H  0.09251530  0.82047577  0.31169751     0.33700
H1554       H  0.12066439  0.82181957  0.30446591     0.30400
H1555       H  0.13537745  0.86127690  0.40981718     0.38200
H1556       H  0.14542306  0.88200317  0.39166374     0.33700
C1557       C  0.06593032  0.88698987  0.43748326    -0.20000
C1558       C  0.06385028  0.90781306  0.45018064     0.36200
C1559       C  0.06384084  0.90698709  0.47448536    -0.26000
C1560       C  0.06597311  0.88586399  0.48626171     0.02600
C1561       C  0.06736524  0.86499940  0.47364292     0.27400
C1562       C  0.06761352  0.86581997  0.44934123    -0.25100
N1563       N  0.06237347  0.92972555  0.43841274    -0.82500
H1564       H  0.06259745  0.92291257  0.48434714     0.13200
C1565       C  0.06672384  0.88601087  0.51185953     0.02600
N1566       N  0.06785335  0.84309342  0.48551457    -0.81100
H1567       H  0.06888503  0.84984118  0.43957553     0.18100
C1568       C  0.04633256  0.89133007  0.52401818    -0.25900
C1569       C  0.04593499  0.89169459  0.54834577     0.36100
C1570       C  0.06641490  0.88652073  0.56072488    -0.20000
C1571       C  0.08683261  0.88138951  0.54848643    -0.25200
C1572       C  0.08739949  0.88148021  0.52427332     0.27500
H1573       H  0.03062362  0.89505475  0.51442754     0.13200
N1574       N  0.02478152  0.89697625  0.56045790    -0.82500
H1575       H  0.10274517  0.87789166  0.55783196     0.18100
N1576       N  0.10940588  0.87782842  0.51306665    -0.81100
H1577       H  0.01153791  0.90103760  0.54881060     0.33700
H1578       H  0.01959504  0.88200440  0.56924876     0.38200
H1579       H  0.11481215  0.86093808  0.51678022     0.33700
H1580       H  0.10824485  0.87925688  0.49510789     0.30400
H1581       H  0.06781501  0.82942719  0.47364078     0.33700
H1582       H  0.08351981  0.84191616  0.49446939     0.30400
H1583       H  0.07809352  0.93235948  0.42976078     0.38200
H1584       H  0.06069092  0.94327687  0.45029673     0.33700
C1585       C  0.89088479  0.06125103  0.63080989    -0.20000
C1586       C  0.89198846  0.06990733  0.65376114     0.36200
C1587       C  0.87492225  0.08539987  0.66176777    -0.26000
C1588       C  0.85654618  0.09266514  0.64753999     0.02600
C1589       C  0.85480200  0.08338578  0.62494077     0.27400
C1590       C  0.87193513  0.06803244  0.61694052    -0.25100
N1591       N  0.91054542  0.06405698  0.66913133    -0.82500
H1592       H  0.87623964  0.09218338  0.67920583     0.13200
C1593       C  0.83940260  0.10972262  0.65678832     0.02600
N1594       N  0.83605659  0.08912593  0.60954241    -0.81100
H1595       H  0.87040378  0.06146727  0.59943746     0.18100
C1596       C  0.83994379  0.13287155  0.64923432    -0.25900
C1597       C  0.82418009  0.14952203  0.65795352     0.32900
C1598       C  0.80710912  0.14271168  0.67427314    -0.20000
C1599       C  0.80656345  0.11935547  0.68146233    -0.25200
C1600       C  0.82252297  0.10292421  0.67302408     0.27500
H1601       H  0.85292394  0.13798999  0.63665250     0.13200
N1602       N  0.82525022  0.17306519  0.64988977    -0.82500
H1603       H  0.79382686  0.11389037  0.69414029     0.18100
N1604       N  0.82174954  0.07932443  0.68096850    -0.81100
H1605       H  0.83750887  0.17466926  0.63662908     0.33700
H1606       H  0.83138249  0.18323122  0.66353344     0.38200
H1607       H  0.80848364  0.07712164  0.69312936     0.33700
H1608       H  0.81754364  0.06889595  0.66679203     0.30400
H1609       H  0.82702292  0.07382751  0.60602038     0.33700
H1610       H  0.82412884  0.10034940  0.61720945     0.30400
H1611       H  0.91030278  0.04618154  0.67199893     0.38200
H1612       H  0.92626164  0.06869349  0.66136491     0.33700
C1613       C  0.82314239  0.15702064  0.32614749    -0.20000
C1614       C  0.81585949  0.13477419  0.33372245     0.36200
C1615       C  0.83246593  0.11867955  0.34170701    -0.26000
C1616       C  0.85612971  0.12424503  0.34258091     0.02600
C1617       C  0.86337430  0.14654810  0.33593816     0.27400
C1618       C  0.84692774  0.16259836  0.32773357    -0.25100
N1619       N  0.79178342  0.12835779  0.33304103    -0.82500
H1620       H  0.82695860  0.10160311  0.34725116     0.13200
C1621       C  0.87304094  0.10684698  0.35141245     0.02600
N1622       N  0.88745185  0.15279891  0.33756938    -0.81100
H1623       H  0.85290506  0.17952064  0.32224850     0.18100
C1624       C  0.88937191  0.09680687  0.33637357    -0.25900
C1625       C  0.90550104  0.08014648  0.34431756     0.36100
C1626       C  0.90540668  0.07358168  0.36795800    -0.20000
C1627       C  0.88901849  0.08395999  0.38286489    -0.25200
C1628       C  0.87302049  0.10049227  0.37490118     0.27500
H1629       H  0.88941595  0.10192557  0.31832615     0.13200
N1630       N  0.92227660  0.07054527  0.32859036    -0.82500
H1631       H  0.88863913  0.07922410  0.40100395     0.18100
N1632       N  0.85686868  0.11110460  0.39065570    -0.81100
H1633       H  0.92112304  0.07859966  0.31241645     0.33700
H1634       H  0.91783812  0.05320571  0.32587388     0.38200
H1635       H  0.85900988  0.10451564  0.40737873     0.33700
H1636       H  0.86085180  0.12875842  0.39149674     0.30400
H1637       H  0.89001860  0.16981588  0.33190495     0.33700
H1638       H  0.89199901  0.15244771  0.35508095     0.30400
H1639       H  0.78305909  0.13860054  0.34517932     0.38200
H1640       H  0.78957129  0.11117745  0.33835721     0.33700
C1641       C  0.93294701  0.03896011  0.56027352    -0.20000
C1642       C  0.91382347  0.03563673  0.54540517     0.36200
C1643       C  0.91718684  0.03655551  0.52133347    -0.26000
C1644       C  0.93915899  0.04095428  0.51194098     0.02600
C1645       C  0.95816093  0.04478920  0.52669656     0.27400
C1646       C  0.95495159  0.04342534  0.55079945    -0.25100
N1647       N  0.89120027  0.03089763  0.55477903    -0.82500
H1648       H  0.90266246  0.03373281  0.50978809     0.13200
C1649       C  0.94187257  0.04131286  0.48651059     0.02600
N1650       N  0.98048420  0.05028915  0.51708326    -0.81100
H1651       H  0.96956831  0.04613754  0.56225203     0.18100
C1652       C  0.94148221  0.06255547  0.47481064    -0.25900
C1653       C  0.94188982  0.06341065  0.45048953     0.36100
C1654       C  0.94249932  0.04250702  0.43772016    -0.20000
C1655       C  0.94402908  0.02130563  0.44961496    -0.25200
C1656       C  0.94365407  0.02051752  0.47391733     0.27500
H1657       H  0.94041599  0.07846369  0.48471403     0.13200
N1658       N  0.94163808  0.08538201  0.43875160    -0.82500
H1659       H  0.94466297  0.00523738  0.43994184     0.18100
N1660       N  0.94444618  0.99869381  0.48590441    -0.81100
H1661       H  0.94103760  0.09899962  0.45066818     0.33700
H1662       H  0.95735473  0.08698007  0.42983876     0.38200
H1663       H  0.94545903  0.98498355  0.47411974     0.33700
H1664       H  0.95976928  0.99830522  0.49555256     0.30400
H1665       H  0.99248907  0.05344978  0.53023881     0.33700
H1666       H  0.98629429  0.03574357  0.50799138     0.30400
H1667       H  0.89202921  0.01492119  0.56328243     0.38200
H1668       H  0.87903645  0.02906428  0.54150053     0.33700
C1669       C  0.82132759  0.64061236  0.18791544    -0.20000
C1670       C  0.84519578  0.63560906  0.19132130     0.36200
C1671       C  0.85904645  0.62871980  0.17237027    -0.26000
C1672       C  0.84975645  0.62653760  0.15003403     0.02600
C1673       C  0.82597930  0.63134316  0.14661916     0.27400
C1674       C  0.81207744  0.63810026  0.16551137    -0.25100
N1675       N  0.85538279  0.63741902  0.21394552    -0.82500
H1676       H  0.87716736  0.62458380  0.17512152     0.13200
C1677       C  0.86468289  0.61774392  0.13070438     0.02600
N1678       N  0.81608420  0.62966839  0.12384908    -0.81100
H1679       H  0.79396776  0.64206409  0.16248605     0.18100
C1680       C  0.85752416  0.59802217  0.11853307    -0.25900
C1681       C  0.87098943  0.58854933  0.10059354     0.36100
C1682       C  0.89279232  0.59849957  0.09501249    -0.20000
C1683       C  0.89979389  0.61859453  0.10688359    -0.25200
C1684       C  0.88592775  0.62837055  0.12457708     0.27500
H1685       H  0.84127818  0.58981033  0.12319213     0.13200
N1686       N  0.86241280  0.56887603  0.08796188    -0.82500
H1687       H  0.91633714  0.62644434  0.10268916     0.18100
N1688       N  0.89334620  0.64899516  0.13635861    -0.81100
H1689       H  0.84632465  0.56353301  0.09440610     0.33700
H1690       H  0.85961642  0.57420252  0.07089022     0.38200
H1691       H  0.90934061  0.65460654  0.12990920     0.33700
H1692       H  0.88134702  0.66205794  0.13262104     0.30400
H1693       H  0.79839116  0.63363843  0.12422625     0.33700
H1694       H  0.82403717  0.64222956  0.11348881     0.30400
H1695       H  0.84781433  0.62465664  0.22434932     0.38200
H1696       H  0.87312984  0.63372228  0.21332704     0.33700
C1697       C  0.90186717  0.33183975  0.10440539    -0.20000
C1698       C  0.89871657  0.34117271  0.12679594     0.36200
C1699       C  0.88180803  0.33164920  0.14155183    -0.26000
C1700       C  0.86815470  0.31286504  0.13445895     0.02600
C1701       C  0.87224730  0.30264420  0.11265231     0.27400
C1702       C  0.88910935  0.31223046  0.09781534    -0.25100
N1703       N  0.91261154  0.36038518  0.13437563    -0.82500
H1704       H  0.87888093  0.33920978  0.15847318     0.13200
C1705       C  0.84924967  0.30446054  0.14983108     0.02600
N1706       N  0.85899828  0.28279440  0.10558340    -0.81100
H1707       H  0.89161450  0.30497803  0.08069688     0.18100
C1708       C  0.82611698  0.30637136  0.14253732    -0.25900
C1709       C  0.80768771  0.29868447  0.15661583     0.36100
C1710       C  0.81254361  0.28877557  0.17848752    -0.20000
C1711       C  0.83577250  0.28735389  0.18586584    -0.25200
C1712       C  0.85413330  0.29491316  0.17171847     0.27500
H1713       H  0.82245965  0.31400788  0.12579402     0.13200
N1714       N  0.78414569  0.30100649  0.14878888    -0.82500
H1715       H  0.83974364  0.27954073  0.20245021     0.18100
N1716       N  0.87776520  0.29249371  0.17926195    -0.81100
H1717       H  0.78363028  0.30843423  0.13228487     0.33700
H1718       H  0.77576981  0.31259570  0.15992066     0.38200
H1719       H  0.87843357  0.28512396  0.19578484     0.33700
H1720       H  0.88596562  0.28083330  0.16807242     0.30400
H1721       H  0.86402001  0.27741143  0.08904051     0.33700
H1722       H  0.86303208  0.26921558  0.11687365     0.30400
H1723       H  0.92985215  0.35478441  0.13495046     0.38200
H1724       H  0.90812704  0.36522020  0.15123887     0.33700
C1725       C  0.91925757  0.52704441  0.05644724    -0.20000
C1726       C  0.93294040  0.51433829  0.04038922     0.36200
C1727       C  0.93236443  0.48993008  0.04076047    -0.26000
C1728       C  0.91802572  0.47792337  0.05628940     0.02600
C1729       C  0.90322393  0.49050679  0.07109786     0.27400
C1730       C  0.90410345  0.51479221  0.07114118    -0.25100
N1731       N  0.94767688  0.52606690  0.02406207    -0.82500
H1732       H  0.94364053  0.48019287  0.02932163     0.13200
C1733       C  0.91993923  0.45231086  0.05841707     0.02600
N1734       N  0.88762499  0.47847802  0.08638854    -0.81100
H1735       H  0.89312155  0.52411061  0.08317571     0.18100
C1736       C  0.92538606  0.44289171  0.08013446    -0.25900
C1737       C  0.92671770  0.41886905  0.08353646     0.36100
C1738       C  0.92320014  0.40387921  0.06461033    -0.20000
C1739       C  0.91853812  0.41324209  0.04265538    -0.25200
C1740       C  0.91650850  0.43733585  0.03942274     0.27500
H1741       H  0.92851009  0.45442551  0.09459160     0.13200
N1742       N  0.93245188  0.40973663  0.10595709    -0.82500
H1743       H  0.91602281  0.40167270  0.02810189     0.18100
N1744       N  0.91071374  0.44659578  0.01708613    -0.81100
H1745       H  0.93661551  0.42314138  0.11738274     0.33700
H1746       H  0.91745872  0.40205970  0.11260764     0.38200
H1747       H  0.90887925  0.43327558  0.00496153     0.33700
H1748       H  0.89451899  0.45463539  0.01850277     0.30400
H1749       H  0.87806205  0.49020108  0.09636701     0.33700
H1750       H  0.87571282  0.46951059  0.07612702     0.30400
H1751       H  0.93692448  0.53466838  0.01228957     0.38200
H1752       H  0.95746029  0.51421089  0.01446683     0.33700
C1753       C  0.67216670  0.77266765  0.18580679    -0.20000
C1754       C  0.67056843  0.79601620  0.19346156     0.36200
C1755       C  0.66223748  0.81323775  0.17829474    -0.26000
C1756       C  0.65552790  0.80792774  0.15560416     0.02600
C1757       C  0.65679052  0.78477687  0.14795400     0.27400
C1758       C  0.66511337  0.76745094  0.16304330    -0.25100
N1759       N  0.67797446  0.80244450  0.21633133    -0.82500
H1760       H  0.66126018  0.83107456  0.18407206     0.13200
C1761       C  0.64717371  0.82684504  0.14006863     0.02600
N1762       N  0.64967978  0.77898975  0.12483247    -0.81100
H1763       H  0.66626517  0.74977206  0.15686207     0.18100
C1764       C  0.66060037  0.83307726  0.12067838    -0.25900
C1765       C  0.65329724  0.85053076  0.10511978     0.36100
C1766       C  0.63218876  0.86234405  0.10923518    -0.20000
C1767       C  0.61924141  0.85647040  0.12911248    -0.25200
C1768       C  0.62613695  0.83879762  0.14426620     0.27500
H1769       H  0.67674441  0.82398789  0.11750000     0.13200
N1770       N  0.66698652  0.85578338  0.08498759    -0.82500
H1771       H  0.60307614  0.86534600  0.13276572     0.18100
N1772       N  0.61097971  0.83326320  0.16331490    -0.81100
H1773       H  0.68218285  0.84588874  0.08482235     0.33700
H1774       H  0.65743985  0.85073779  0.07046855     0.38200
H1775       H  0.59508440  0.82804606  0.15636259     0.33700
H1776       H  0.61697633  0.81920220  0.17292193     0.30400
H1777       H  0.65179992  0.76125956  0.12177863     0.33700
H1778       H  0.63191446  0.78240341  0.12355791     0.30400
H1779       H  0.69600108  0.80053791  0.21693513     0.38200
H1780       H  0.67461878  0.81996869  0.21948467     0.33700
C1781       C  0.32382572  0.77076677  0.18151739    -0.20000
C1782       C  0.32794400  0.79403086  0.18835819     0.36200
C1783       C  0.33559141  0.81039550  0.17183969    -0.26000
C1784       C  0.33926872  0.80427744  0.14858898     0.02600
C1785       C  0.33545923  0.78110111  0.14179595     0.27400
C1786       C  0.32801292  0.76469204  0.15825138    -0.25100
N1787       N  0.32390459  0.80123583  0.21183807    -0.82500
H1788       H  0.33888373  0.82808054  0.17718337     0.13200
C1789       C  0.34788968  0.82206501  0.13173093     0.02600
N1790       N  0.33871403  0.77438150  0.11804677    -0.81100
H1791       H  0.32493333  0.74706880  0.15261231     0.18100
C1792       C  0.36828771  0.81763622  0.11922055    -0.25900
C1793       C  0.37756552  0.83406220  0.10378228     0.36100
C1794       C  0.36662802  0.85588014  0.10113528    -0.20000
C1795       C  0.34576364  0.86007006  0.11302317    -0.25200
C1796       C  0.33624896  0.84337272  0.12822502     0.27500
H1797       H  0.37724045  0.80132089  0.12175579     0.13200
N1798       N  0.39813788  0.82863085  0.09077119    -0.82500
H1799       H  0.33724882  0.87668880  0.11102514     0.18100
N1800       N  0.31489971  0.84802367  0.14022783    -0.81100
H1801       H  0.40408728  0.81198158  0.09474801     0.33700
H1802       H  0.39360222  0.82845264  0.07325499     0.38200
H1803       H  0.30858407  0.86444110  0.13587407     0.33700
H1804       H  0.30262357  0.83603963  0.13443061     0.30400
H1805       H  0.33528048  0.75673368  0.11584865     0.33700
H1806       H  0.32648951  0.78334409  0.10812733     0.30400
H1807       H  0.33645493  0.79323817  0.22216278     0.38200
H1808       H  0.32649109  0.81907853  0.21359992     0.33700
C1809       C  0.43836898  0.89588343  0.07857486    -0.20000
C1810       C  0.45202452  0.87601802  0.07446359     0.36200
C1811       C  0.47627278  0.87789481  0.07484739    -0.26000
C1812       C  0.48712902  0.89922821  0.07898839     0.02600
C1813       C  0.47352497  0.91924170  0.08246232     0.27400
C1814       C  0.44921316  0.91738029  0.08207820    -0.25100
N1815       N  0.44124311  0.85416728  0.06933851    -0.82500
H1816       H  0.48683785  0.86267488  0.07170432     0.13200
C1817       C  0.51279943  0.90004846  0.07976054     0.02600
N1818       N  0.48444478  0.94123489  0.08662786    -0.81100
H1819       H  0.43866523  0.93266523  0.08494760     0.18100
C1820       C  0.52495125  0.91367989  0.06376049    -0.25900
C1821       C  0.54935363  0.91371376  0.06313168     0.36100
C1822       C  0.56188469  0.89921320  0.07858952    -0.20000
C1823       C  0.54942319  0.88612289  0.09501270    -0.25200
C1824       C  0.52513036  0.88653430  0.09585647     0.27500
H1825       H  0.51530038  0.92415062  0.05152676     0.13200
N1826       N  0.56119997  0.92826784  0.04672727    -0.82500
H1827       H  0.55858824  0.87527403  0.10726280     0.18100
N1828       N  0.51285104  0.87315346  0.11293612    -0.81100
H1829       H  0.54935772  0.93685540  0.03604000     0.33700
H1830       H  0.56975955  0.94117129  0.05610894     0.38200
H1831       H  0.52443846  0.86400957  0.12343503     0.33700
H1832       H  0.50407966  0.88477187  0.12372992     0.30400
H1833       H  0.47197752  0.95423630  0.08871851     0.33700
H1834       H  0.49338304  0.94002099  0.10231471     0.30400
H1835       H  0.45376067  0.84130749  0.06674395     0.38200
H1836       H  0.43238195  0.85600175  0.05366270     0.33700
C1837       C  0.63760253  0.07006771  0.90305166    -0.20000
C1838       C  0.65908855  0.06727189  0.89144850     0.36200
C1839       C  0.66694231  0.08460876  0.87619343    -0.26000
C1840       C  0.65377732  0.10470214  0.87200622     0.02600
C1841       C  0.63229736  0.10750806  0.88351917     0.27400
C1842       C  0.62480504  0.09047156  0.89902137    -0.25100
N1843       N  0.67284508  0.04677270  0.89400893    -0.82500
H1844       H  0.68331375  0.08223598  0.86725793     0.13200
C1845       C  0.66239822  0.12226709  0.85524458     0.02600
N1846       N  0.61706939  0.12681859  0.87926620    -0.81100
H1847       H  0.60827289  0.09307200  0.90757801     0.18100
C1848       C  0.66071434  0.11783917  0.83145302    -0.25900
C1849       C  0.66725666  0.13461072  0.81492232     0.36100
C1850       C  0.67584095  0.15639173  0.82241437    -0.20000
C1851       C  0.67753463  0.16057032  0.84640664    -0.25200
C1852       C  0.67104520  0.14377636  0.86282118     0.27500
H1853       H  0.65393454  0.10128376  0.82577901     0.13200
N1854       N  0.66528035  0.12943287  0.79066651    -0.82500
H1855       H  0.68441849  0.17690704  0.85252754     0.18100
N1856       N  0.67378912  0.14825870  0.88715520    -0.81100
H1857       H  0.65942762  0.11247105  0.78818953     0.33700
H1858       H  0.65251563  0.14032077  0.78381553     0.38200
H1859       H  0.68127079  0.16453708  0.88981487     0.33700
H1860       H  0.65730592  0.14898036  0.89463030     0.30400
H1861       H  0.61567678  0.13629079  0.89462569     0.33700
H1862       H  0.62352221  0.13803373  0.86665380     0.30400
H1863       H  0.67782196  0.04528431  0.91132680     0.38200
H1864       H  0.66272793  0.03243721  0.88952529     0.33700
C1865       C  0.37266036  0.07094670  0.90248194    -0.20000
C1866       C  0.38539512  0.09095181  0.89606784     0.36200
C1867       C  0.37633074  0.10651196  0.87978641    -0.26000
C1868       C  0.35466083  0.10279508  0.86962151     0.02600
C1869       C  0.34143578  0.08319581  0.87640090     0.27400
C1870       C  0.35059594  0.06756669  0.89277205    -0.25100
N1871       N  0.40751292  0.09579063  0.90626443    -0.82500
H1872       H  0.38633608  0.12169603  0.87504052     0.13200
C1873       C  0.34604975  0.12031877  0.85284426     0.02600
N1874       N  0.31885791  0.07846256  0.86698454    -0.81100
H1875       H  0.34063071  0.05234648  0.89742940     0.18100
C1876       C  0.34803367  0.11627669  0.82898741    -0.25900
C1877       C  0.33997264  0.13263592  0.81269631     0.36100
C1878       C  0.32938437  0.15341251  0.82053704    -0.20000
C1879       C  0.32837750  0.15761800  0.84455573    -0.25200
C1880       C  0.33653623  0.14133119  0.86069258     0.27500
H1881       H  0.35588398  0.10026138  0.82310108     0.13200
N1882       N  0.34241135  0.12806660  0.78835447    -0.82500
H1883       H  0.32054320  0.17343329  0.85094449     0.18100
N1884       N  0.33503239  0.14593482  0.88510423    -0.81100
H1885       H  0.35010399  0.11188525  0.78560977     0.33700
H1886       H  0.35387807  0.14038335  0.78161460     0.38200
H1887       H  0.32779692  0.16227983  0.88809295     0.33700
H1888       H  0.32360752  0.13383852  0.89229421     0.30400
H1889       H  0.30692524  0.07934809  0.88059924     0.33700
H1890       H  0.31383019  0.09097865  0.85495789     0.30400
H1891       H  0.41980582  0.09684742  0.89297787     0.38200
H1892       H  0.40658115  0.11197162  0.91434559     0.33700
C1893       C  0.56563687  0.03485710  0.93104259    -0.20000
C1894       C  0.55224807  0.05499141  0.92716337     0.36200
C1895       C  0.52800886  0.05360118  0.92755008    -0.26000
C1896       C  0.51686485  0.03245491  0.93156780     0.02600
C1897       C  0.53000909  0.01216270  0.93488176     0.27400
C1898       C  0.55432631  0.01361219  0.93485753    -0.25100
N1899       N  0.56311172  0.07697849  0.92332705    -0.82500
H1900       H  0.51780187  0.06913681  0.92477309     0.13200
C1901       C  0.49134508  0.03190085  0.93179597     0.02600
N1902       N  0.51863928  0.99013853  0.93749411    -0.81100
H1903       H  0.56448141  0.99801460  0.93741808     0.18100
C1904       C  0.47950398  0.03058595  0.91069692    -0.25900
C1905       C  0.45518632  0.03114311  0.91004613     0.36100
C1906       C  0.44266671  0.03287963  0.93095898    -0.20000
C1907       C  0.45455420  0.03393419  0.95210105    -0.25200
C1908       C  0.47889116  0.03382715  0.95270647     0.27500
H1909       H  0.48931311  0.02932750  0.89472768     0.13200
N1910       N  0.44314214  0.02984286  0.88831150    -0.82500
H1911       H  0.44482289  0.03561144  0.96808452     0.18100
N1912       N  0.49099668  0.03668069  0.97426925    -0.81100
H1913       H  0.45492575  0.02874771  0.87458000     0.33700
H1914       H  0.43362501  0.01442689  0.88824839     0.38200
H1915       H  0.47923367  0.03869162  0.98791382     0.33700
H1916       H  0.50020840  0.02146316  0.97761819     0.30400
H1917       H  0.53085965  0.97684057  0.93906908     0.33700
H1918       H  0.50929096  0.99040377  0.95298639     0.30400
H1919       H  0.55760399  0.08328335  0.90727680     0.38200
H1920       H  0.55734751  0.08844329  0.93610873     0.33700
C1921       C  0.63712389  0.06509773  0.10409780    -0.20000
C1922       C  0.62348507  0.07010455  0.12390726     0.36200
C1923       C  0.63176806  0.08572954  0.14051322    -0.26000
C1924       C  0.65357701  0.09599956  0.13816158     0.02600
C1925       C  0.66799653  0.08978779  0.11938260     0.27400
C1926       C  0.65953149  0.07446132  0.10237705    -0.25100
N1927       N  0.60127185  0.05922177  0.12715260    -0.82500
H1928       H  0.62116909  0.08996037  0.15543885     0.13200
C1929       C  0.66126610  0.11239274  0.15627368     0.02600
N1930       N  0.69126841  0.09861990  0.11794478    -0.81100
H1931       H  0.67016744  0.07035337  0.08745579     0.18100
C1932       C  0.66921486  0.10350242  0.17732239    -0.25900
C1933       C  0.67670574  0.11821990  0.19517765     0.36100
C1934       C  0.67626343  0.14262984  0.19183938    -0.20000
C1935       C  0.66710800  0.15140388  0.17098723    -0.25200
C1936       C  0.65934998  0.13653930  0.15330645     0.27500
H1937       H  0.66987153  0.08487846  0.17968105     0.13200
N1938       N  0.68507073  0.10826368  0.21641035    -0.82500
H1939       H  0.66613245  0.16996189  0.16833968     0.18100
N1940       N  0.64885897  0.14584105  0.13272244    -0.81100
H1941       H  0.68238116  0.09034765  0.21663688     0.33700
H1942       H  0.70304138  0.11063072  0.21678949     0.38200
H1943       H  0.64810857  0.16392296  0.13356103     0.33700
H1944       H  0.65948929  0.14180607  0.11864819     0.30400
H1945       H  0.69973918  0.09189893  0.10340712     0.33700
H1946       H  0.69038189  0.11652460  0.11553116     0.30400
H1947       H  0.60415285  0.04142688  0.12900457     0.38200
H1948       H  0.59348052  0.06483952  0.14251268     0.33700
C1949       C  0.32814642  0.14685098  0.19243425    -0.20000
C1950       C  0.33883437  0.12583159  0.19908355     0.36200
C1951       C  0.34840803  0.11120868  0.18217339    -0.26000
C1952       C  0.34747880  0.11709260  0.15865993     0.02600
C1953       C  0.33724970  0.13818375  0.15188709     0.27400
C1954       C  0.32775957  0.15290691  0.16883784    -0.25100
N1955       N  0.34014523  0.11928866  0.22297050    -0.82500
H1956       H  0.35648988  0.09507376  0.18739853     0.13200
C1957       C  0.35741448  0.10097302  0.14132702     0.02600
N1958       N  0.33630628  0.14437648  0.12780509    -0.81100
H1959       H  0.31942558  0.16886499  0.16349754     0.18100
C1960       C  0.34230727  0.08744599  0.12797800    -0.25900
C1961       C  0.35074791  0.07134445  0.11166591     0.36100
C1962       C  0.37502913  0.06837876  0.10895568    -0.20000
C1963       C  0.38998797  0.08235920  0.12229599    -0.25200
C1964       C  0.38158852  0.09866518  0.13815332     0.27500
H1965       H  0.32376709  0.08949302  0.13034941     0.13200
N1966       N  0.33466391  0.05811439  0.09805134    -0.82500
H1967       H  0.40862319  0.08075224  0.12051819     0.18100
N1968       N  0.39817952  0.11247557  0.15061992    -0.81100
H1969       H  0.31758313  0.06163405  0.10304754     0.33700
H1970       H  0.33618847  0.06378846  0.08092579     0.38200
H1971       H  0.40737160  0.12229796  0.13847370     0.33700
H1972       H  0.39018534  0.12434084  0.16166263     0.30400
H1973       H  0.32797372  0.16032953  0.12566489     0.33700
H1974       H  0.35335681  0.14659687  0.12203182     0.30400
H1975       H  0.33190252  0.10327213  0.22492632     0.38200
H1976       H  0.35762476  0.11715968  0.22727710     0.33700
C1977       C  0.44510366  0.03519080  0.07321833    -0.20000
C1978       C  0.45562844  0.02886840  0.05196876     0.36200
C1979       C  0.47986205  0.02980765  0.04981687    -0.26000
C1980       C  0.49383340  0.03683121  0.06835297     0.02600
C1981       C  0.48338140  0.04300671  0.08959910     0.27400
C1982       C  0.45913730  0.04234307  0.09171257    -0.25100
N1983       N  0.44174930  0.02213761  0.03243701    -0.82500
H1984       H  0.48789992  0.02551987  0.03340087     0.13200
C1985       C  0.51933499  0.03830188  0.06510878     0.02600
N1986       N  0.49745221  0.04976210  0.10898866    -0.81100
H1987       H  0.45117723  0.04709409  0.10803853     0.18100
C1988       C  0.53061459  0.05920909  0.07016065    -0.25900
C1989       C  0.55480899  0.06111451  0.06871094     0.36100
C1990       C  0.56805108  0.04168404  0.06184153    -0.20000
C1991       C  0.55664955  0.02115380  0.05544813    -0.25200
C1992       C  0.53242538  0.01917001  0.05722594     0.27500
H1993       H  0.52044940  0.07408640  0.07548275     0.13200
N1994       N  0.56595866  0.08267744  0.07430252    -0.82500
H1995       H  0.56672406  0.00621345  0.05013814     0.18100
N1996       N  0.52117585  0.99763081  0.05173013    -0.81100
H1997       H  0.55374965  0.09511608  0.07930339     0.33700
H1998       H  0.57381787  0.08886752  0.05919797     0.38200
H1999       H  0.53326829  0.98535259  0.04608310     0.33700
H2000       H  0.51390604  0.99113322  0.06699898     0.30400
H2001       H  0.48708433  0.05392442  0.12325912     0.33700
H2002       H  0.50743564  0.03541652  0.11378239     0.30400
H2003       H  0.43231621  0.03669312  0.02719937     0.38200
H2004       H  0.45223479  0.01746752  0.01841132     0.33700
C2005       C  0.09837056  0.60284606  0.10238760    -0.20000
C2006       C  0.09704929  0.59285198  0.12467438     0.36200
C2007       C  0.11233231  0.60021072  0.14213049    -0.26000
C2008       C  0.12905003  0.61733014  0.13783617     0.02600
C2009       C  0.12987629  0.62794038  0.11578193     0.27400
C2010       C  0.11443759  0.62064207  0.09826463    -0.25100
N2011       N  0.08045520  0.57483657  0.12929953    -0.82500
H2012       H  0.11160931  0.59213788  0.15905562     0.13200
C2013       C  0.14566956  0.62366074  0.15660614     0.02600
N2014       N  0.14663234  0.64579123  0.11119295    -0.81100
H2015       H  0.11565512  0.62808952  0.08108567     0.18100
C2016       C  0.16955949  0.62005359  0.15342902    -0.25900
C2017       C  0.18572941  0.62564573  0.17089058     0.36100
C2018       C  0.17786031  0.63541907  0.19200365    -0.20000
C2019       C  0.15378999  0.63826342  0.19529211    -0.25200
C2020       C  0.13772075  0.63260595  0.17788093     0.27500
H2021       H  0.17558823  0.61268665  0.13725438     0.13200
N2022       N  0.21003142  0.62147789  0.16713623    -0.82500
H2023       H  0.14739619  0.64574375  0.21126346     0.18100
N2024       N  0.11333348  0.63638162  0.18153675    -0.81100
H2025       H  0.21289732  0.61456721  0.15065143     0.33700
H2026       H  0.21527948  0.60881781  0.17898119     0.38200
H2027       H  0.11026544  0.64297831  0.19811250     0.33700
H2028       H  0.10793726  0.64910555  0.16982975     0.30400
H2029       H  0.14512309  0.65169587  0.09414888     0.33700
H2030       H  0.14268939  0.65985059  0.12190684     0.30400
H2031       H  0.06390798  0.58203242  0.12749573     0.38200
H2032       H  0.08178464  0.56914809  0.14643236     0.33700
C2033       C  0.10986503  0.33804054  0.09663737    -0.20000
C2034       C  0.11687489  0.31457573  0.09511818     0.36200
C2035       C  0.13228821  0.30545601  0.11178678    -0.26000
C2036       C  0.14111242  0.31937008  0.12964175     0.02600
C2037       C  0.13423482  0.34270289  0.13116049     0.27400
C2038       C  0.11878162  0.35178956  0.11469295    -0.25100
N2039       N  0.10885077  0.30025387  0.07643152    -0.82500
H2040       H  0.13778256  0.28753429  0.11065569     0.13200
C2041       C  0.15783422  0.30954851  0.14658462     0.02600
N2042       N  0.14307478  0.35709164  0.14943618    -0.81100
H2043       H  0.11353294  0.36975793  0.11613337     0.18100
C2044       C  0.18155904  0.31424852  0.14403393    -0.25900
C2045       C  0.19792837  0.30556933  0.15992688     0.36100
C2046       C  0.19035327  0.29202807  0.17891894    -0.20000
C2047       C  0.16648073  0.28779766  0.18165978    -0.25200
C2048       C  0.15017703  0.29631345  0.16560867     0.27500
H2049       H  0.18729586  0.32468175  0.12951439     0.13200
N2050       N  0.22218128  0.31050920  0.15687570    -0.82500
H2051       H  0.16058486  0.27719639  0.19598949     0.18100
N2052       N  0.12589975  0.29135910  0.16835598    -0.81100
H2053       H  0.22485636  0.32053122  0.14202722     0.33700
H2054       H  0.22750542  0.32058552  0.17093002     0.38200
H2055       H  0.12311361  0.28116037  0.18306113     0.33700
H2056       H  0.11735231  0.30707448  0.17126185     0.30400
H2057       H  0.13653354  0.37393375  0.14802885     0.33700
H2058       H  0.13688054  0.35044670  0.16510847     0.30400
H2059       H  0.11558396  0.30708706  0.06106028     0.38200
H2060       H  0.11551495  0.28346875  0.07794387     0.33700
C2061       C  0.07992963  0.53215185  0.05971425    -0.20000
C2062       C  0.07619532  0.52060920  0.03841596     0.36200
C2063       C  0.07680559  0.49624069  0.03773257    -0.26000
C2064       C  0.08147472  0.48330653  0.05772529     0.02600
C2065       C  0.08579642  0.49474408  0.07878893     0.27400
C2066       C  0.08509309  0.51902745  0.07955653    -0.25100
N2067       N  0.07203372  0.53357848  0.01756719    -0.82500
H2068       H  0.07369232  0.48724973  0.02156800     0.13200
C2069       C  0.08123693  0.45769731  0.05669898     0.02600
N2070       N  0.09048167  0.48157641  0.09939836    -0.81100
H2071       H  0.08794079  0.52768812  0.09593953     0.18100
C2072       C  0.10211158  0.44549986  0.05905376    -0.25900
C2073       C  0.10237240  0.42115510  0.05993316     0.36100
C2074       C  0.08120891  0.40882575  0.05873255    -0.20000
C2075       C  0.06040786  0.42115159  0.05556111    -0.25200
C2076       C  0.06020108  0.44548996  0.05472571     0.27500
H2077       H  0.11821896  0.45507265  0.06039579     0.13200
N2078       N  0.12402976  0.40895674  0.06189048    -0.82500
H2079       H  0.04414220  0.41181407  0.05458101     0.18100
N2080       N  0.03869328  0.45791037  0.05247982    -0.81100
H2081       H  0.13789333  0.42060025  0.06268884     0.33700
H2082       H  0.12628101  0.39933277  0.04672233     0.38200
H2083       H  0.02477931  0.44637731  0.05117096     0.33700
H2084       H  0.03613615  0.46732612  0.06773155     0.30400
H2085       H  0.09342490  0.49259610  0.11344786     0.33700
H2086       H  0.07556990  0.47204967  0.10334717     0.30400
H2087       H  0.08699085  0.54318691  0.01400581     0.38200
H2088       H  0.06966179  0.52241918  0.00351898     0.33700
C2089       C  0.31793587  0.27445866  0.17491170    -0.20000
C2090       C  0.31087880  0.29788568  0.17232303     0.36200
C2091       C  0.32690510  0.31444367  0.16430873    -0.26000
C2092       C  0.34994141  0.30840370  0.15944659     0.02600
C2093       C  0.35706900  0.28520612  0.16192530     0.27400
C2094       C  0.34104060  0.26850306  0.16956570    -0.25100
N2095       N  0.28776564  0.30504832  0.17841906    -0.82500
H2096       H  0.32157640  0.33234727  0.16233664     0.13200
C2097       C  0.36626012  0.32650099  0.15115471     0.02600
N2098       N  0.38056540  0.27872287  0.15662610    -0.81100
H2099       H  0.34675944  0.25072959  0.17153164     0.18100
C2100       C  0.38527785  0.33300405  0.16484902    -0.25900
C2101       C  0.40132803  0.34960900  0.15711344     0.36100
C2102       C  0.39844795  0.35998227  0.13505116    -0.20000
C2103       C  0.37893224  0.35374257  0.12175851    -0.25200
C2104       C  0.36298422  0.33707380  0.12947107     0.27500
H2105       H  0.38776622  0.32493526  0.18160699     0.13200
N2106       N  0.42064098  0.35490231  0.17172588    -0.82500
H2107       H  0.37627723  0.36158783  0.10492779     0.18100
N2108       N  0.34371034  0.33045366  0.11515148    -0.81100
H2109       H  0.43596099  0.35151419  0.16263279     0.33700
H2110       H  0.41999192  0.37247968  0.17600066     0.38200
H2111       H  0.34370218  0.33991050  0.09970951     0.33700
H2112       H  0.34601332  0.31307307  0.11058250     0.30400
H2113       H  0.38311505  0.26102163  0.15953796     0.33700
H2114       H  0.38317114  0.28148803  0.13892491     0.30400
H2115       H  0.28615274  0.30352166  0.19638793     0.38200
H2116       H  0.28524238  0.32257950  0.17459195     0.33700
C2117       C  0.40028732  0.35373942  0.86845294    -0.20000
C2118       C  0.39715363  0.33114656  0.87749080     0.36200
C2119       C  0.37996809  0.31665268  0.86812816    -0.26000
C2120       C  0.36610178  0.32393936  0.84958283     0.02600
C2121       C  0.37004881  0.34597779  0.83968515     0.27400
C2122       C  0.38706983  0.36066766  0.84923948    -0.25100
N2123       N  0.41142739  0.32297311  0.89617659    -0.82500
H2124       H  0.37710342  0.29965812  0.87558385     0.13200
C2125       C  0.34722047  0.30844744  0.84112535     0.02600
N2126       N  0.35661040  0.35339960  0.82010044    -0.81100
H2127       H  0.38949112  0.37786788  0.84211878     0.18100
C2128       C  0.32414698  0.31624420  0.84160641    -0.25900
C2129       C  0.30575403  0.30203000  0.83412104     0.36100
C2130       C  0.31054383  0.27948085  0.82573041    -0.20000
C2131       C  0.33365525  0.27155501  0.82586497    -0.25200
C2132       C  0.35198336  0.28578885  0.83331196     0.27500
H2133       H  0.32046776  0.33347826  0.84808101     0.13200
N2134       N  0.28229521  0.31042856  0.83514237    -0.82500
H2135       H  0.33762416  0.25439886  0.81936538     0.18100
N2136       N  0.37549166  0.27748361  0.83253058    -0.81100
H2137       H  0.28182089  0.32738454  0.84149167     0.33700
H2138       H  0.27332740  0.30018157  0.84710450     0.38200
H2139       H  0.37607331  0.26043730  0.82643658     0.33700
H2140       H  0.38451110  0.28761299  0.82051060     0.30400
H2141       H  0.36153719  0.37005405  0.81493948     0.33700
H2142       H  0.36053893  0.34233327  0.80631629     0.30400
H2143       H  0.42850513  0.32221864  0.89010583     0.38200
H2144       H  0.40684542  0.30608246  0.90086982     0.33700
C2145       C  0.43045775  0.38754375  0.94062869    -0.20000
C2146       C  0.42856094  0.36734719  0.95424155     0.36200
C2147       C  0.42891244  0.36907329  0.97843416    -0.26000
C2148       C  0.43123367  0.39060572  0.98941040     0.02600
C2149       C  0.43321144  0.41095216  0.97586437     0.27400
C2150       C  0.43302746  0.40909264  0.95169011    -0.25100
N2151       N  0.42693773  0.34498669  0.94364706    -0.82500
H2152       H  0.42753585  0.35344256  0.98876313     0.13200
C2153       C  0.43141806  0.39110209  0.01497887     0.02600
N2154       N  0.43514216  0.43370400  0.98586630    -0.81100
H2155       H  0.43442803  0.42479636  0.94148125     0.18100
C2156       C  0.45224344  0.39548653  0.02665938    -0.25900
C2157       C  0.45315904  0.39507712  0.05092274     0.36100
C2158       C  0.43290974  0.39007402  0.06375366    -0.20000
C2159       C  0.41207599  0.38571339  0.05191265    -0.25200
C2160       C  0.41110492  0.38634471  0.02765208     0.27500
H2161       H  0.46790438  0.39897958  0.01686003     0.13200
N2162       N  0.47481364  0.39905739  0.06237205    -0.82500
H2163       H  0.39639492  0.38208018  0.06161396     0.18100
N2164       N  0.38961900  0.38215560  0.01577195    -0.81100
H2165       H  0.48674023  0.38675097  0.05644689     0.33700
H2166       H  0.48082967  0.41544669  0.05752553     0.38200
H2167       H  0.37630294  0.37877963  0.02760689     0.33700
H2168       H  0.38508862  0.39741707  0.00712039     0.30400
H2169       H  0.42066579  0.44326755  0.98061009     0.33700
H2170       H  0.43453103  0.43322289  0.00389893     0.30400
H2171       H  0.41163625  0.33712953  0.94938278     0.38200
H2172       H  0.44090520  0.33495574  0.94937988     0.33700
C2173       C  0.17240089  0.28161387  0.30924910    -0.20000
C2174       C  0.16971885  0.27342919  0.33232020     0.36200
C2175       C  0.16167720  0.28859991  0.34962864    -0.26000
C2176       C  0.15664353  0.31181317  0.34470470     0.02600
C2177       C  0.15935962  0.32012686  0.32195794     0.27400
C2178       C  0.16718613  0.30500137  0.30449565    -0.25100
N2179       N  0.17558041  0.24996714  0.33837182    -0.82500
H2180       H  0.15950557  0.28237759  0.36720237     0.13200
C2181       C  0.14771387  0.32699677  0.36346438     0.02600
N2182       N  0.15416343  0.34392135  0.31671977    -0.81100
H2183       H  0.16933458  0.31162829  0.28708137     0.18100
C2184       C  0.16232012  0.34399739  0.37297333    -0.25900
C2185       C  0.15443394  0.35917972  0.39048188     0.36100
C2186       C  0.13145275  0.35708422  0.39883883    -0.20000
C2187       C  0.11721382  0.33954481  0.38957640    -0.25200
C2188       C  0.12481737  0.32479234  0.37193525     0.27500
H2189       H  0.17987438  0.34560474  0.36644025     0.13200
N2190       N  0.16953209  0.37687335  0.39932434    -0.82500
H2191       H  0.09960759  0.33738136  0.39579957     0.18100
N2192       N  0.10860357  0.30811484  0.36293464    -0.81100
H2193       H  0.18594565  0.37566601  0.39169655     0.33700
H2194       H  0.16270096  0.39288989  0.39430461     0.38200
H2195       H  0.09471598  0.31730440  0.35577963     0.33700
H2196       H  0.11563414  0.29833622  0.34947721     0.30400
H2197       H  0.15728546  0.34741171  0.29923058     0.33700
H2198       H  0.13640018  0.34639743  0.31943434     0.30400
H2199       H  0.19360298  0.24835570  0.33707405     0.38200
H2200       H  0.17143222  0.24655282  0.35566631     0.33700
C2201       C  0.86471773  0.36689238  0.39078420    -0.20000
C2202       C  0.87232078  0.36765771  0.36753175     0.36200
C2203       C  0.86356155  0.35162752  0.35150893    -0.26000
C2204       C  0.84733142  0.33482586  0.35814903     0.02600
C2205       C  0.83909383  0.33448349  0.38117398     0.27400
C2206       C  0.84780642  0.35064106  0.39728981    -0.25100
N2207       N  0.88905431  0.38466211  0.36031822    -0.82500
H2208       H  0.86968538  0.35197410  0.33376590     0.13200
C2209       C  0.83933856  0.31778451  0.34058318     0.02600
N2210       N  0.82214971  0.31759154  0.38810352    -0.81100
H2211       H  0.84205386  0.34999131  0.41514169     0.18100
C2212       C  0.84506045  0.29426502  0.34299756    -0.25900
C2213       C  0.83893471  0.27791713  0.32590915     0.36100
C2214       C  0.82663096  0.28527790  0.30600200    -0.20000
C2215       C  0.82114841  0.30896993  0.30370619    -0.25200
C2216       C  0.82720848  0.32517991  0.32078650     0.27500
H2217       H  0.85467470  0.28873307  0.35812746     0.13200
N2218       N  0.84529209  0.25399490  0.32871171    -0.82500
H2219       H  0.81143436  0.31488395  0.28879538     0.18100
N2220       N  0.82084905  0.34914817  0.31827284    -0.81100
H2221       H  0.85396828  0.25147129  0.34439287     0.33700
H2222       H  0.85711625  0.24991559  0.31558985     0.38200
H2223       H  0.81200887  0.35183210  0.30271163     0.33700
H2224       H  0.80920292  0.35315833  0.33157542     0.30400
H2225       H  0.81802634  0.31954507  0.40562504     0.33700
H2226       H  0.80695278  0.32095415  0.37883577     0.30400
H2227       H  0.88143490  0.40098985  0.36226937     0.38200
H2228       H  0.89295557  0.38280291  0.34273621     0.33700
C2229       C  0.93709814  0.39489396  0.42552652    -0.20000
C2230       C  0.95069409  0.39032524  0.40563095     0.36200
C2231       C  0.97495557  0.38974162  0.40752546    -0.26000
C2232       C  0.98600984  0.39361195  0.42877333     0.02600
C2233       C  0.97255700  0.39862430  0.44855183     0.27400
C2234       C  0.94828100  0.39938411  0.44668081    -0.25100
N2235       N  0.93994970  0.38665545  0.38350083    -0.82500
H2236       H  0.98538566  0.38641155  0.39226344     0.13200
C2237       C  0.01169931  0.39230204  0.42992155     0.02600
N2238       N  0.98357139  0.40249664  0.47052684    -0.81100
H2239       H  0.93803834  0.40290043  0.46202168     0.18100
C2240       C  0.02430474  0.41127822  0.43836372    -0.25900
C2241       C  0.04865747  0.41082575  0.43927678     0.36100
C2242       C  0.06068079  0.39099388  0.43125894    -0.20000
C2243       C  0.04795943  0.37207117  0.42275215    -0.25200
C2244       C  0.02364619  0.37240236  0.42224338     0.27500
H2245       H  0.01507913  0.42664856  0.44397983     0.13200
N2246       N  0.06110941  0.43053772  0.44801001    -0.82500
H2247       H  0.05699982  0.35671893  0.41680837     0.18100
N2248       N  0.01100968  0.35251772  0.41416193    -0.81100
H2249       H  0.04964841  0.44352719  0.45336520     0.33700
H2250       H  0.07082565  0.43740519  0.43434802     0.38200
H2251       H  0.02237655  0.33936867  0.40900117     0.33700
H2252       H  0.00149832  0.34599028  0.42813795     0.30400
H2253       H  0.97122950  0.40612067  0.48329911     0.33700
H2254       H  0.99172497  0.38705835  0.47538128     0.30400
H2255       H  0.95239840  0.38301088  0.37083414     0.38200
H2256       H  0.93206125  0.40223566  0.37866160     0.33700
C2257       C  0.30772279  0.13825256  0.31806566    -0.20000
C2258       C  0.32781960  0.12745475  0.30889747     0.36200
C2259       C  0.34568625  0.12049766  0.32393245    -0.26000
C2260       C  0.34384147  0.12342746  0.34798832     0.02600
C2261       C  0.32366354  0.13367330  0.35724139     0.27400
C2262       C  0.30591931  0.14103976  0.34223271    -0.25100
N2263       N  0.33014763  0.12358209  0.28441216    -0.82500
H2264       H  0.36118673  0.11256141  0.31685241     0.13200
C2265       C  0.36273328  0.11455771  0.36321662     0.02600
N2266       N  0.32122744  0.13648682  0.38184920    -0.81100
H2267       H  0.29074366  0.14937795  0.34952344     0.18100
C2268       C  0.37412402  0.12944215  0.37874593    -0.25900
C2269       C  0.39223746  0.12140257  0.39315023     0.36100
C2270       C  0.39905809  0.09781502  0.39206133    -0.20000
C2271       C  0.38755615  0.08318665  0.37620313    -0.25200
C2272       C  0.36949028  0.09116285  0.36209025     0.27500
H2273       H  0.36899793  0.14749309  0.37944051     0.13200
N2274       N  0.40344487  0.13712321  0.40882301    -0.82500
H2275       H  0.39236691  0.06510691  0.37486164     0.18100
N2276       N  0.35769014  0.07543051  0.34680206    -0.81100
H2277       H  0.39555072  0.15342900  0.40823773     0.33700
H2278       H  0.42042778  0.13948366  0.40291277     0.38200
H2279       H  0.36482854  0.05880709  0.34786151     0.33700
H2280       H  0.34051424  0.07408996  0.35247962     0.30400
H2281       H  0.30545989  0.14450543  0.38585901     0.33700
H2282       H  0.32064918  0.11995130  0.38922831     0.30400
H2283       H  0.31742449  0.11162635  0.27958833     0.38200
H2284       H  0.34613713  0.11593068  0.28055685     0.33700
C2285       C  0.39892306  0.83215680  0.39231770    -0.20000
C2286       C  0.38593687  0.81199902  0.39755389     0.36200
C2287       C  0.36974816  0.80355914  0.38146361    -0.26000
C2288       C  0.36603741  0.81481532  0.36021512     0.02600
C2289       C  0.37900602  0.83489568  0.35487360     0.27400
C2290       C  0.39526035  0.84311148  0.37082549    -0.25100
N2291       N  0.38815003  0.80018527  0.41923782    -0.82500
H2292       H  0.35990154  0.78810857  0.38560070     0.13200
C2293       C  0.34942295  0.80475078  0.34339957     0.02600
N2294       N  0.37590231  0.84770893  0.33372199    -0.81100
H2295       H  0.40492058  0.85859812  0.36637735     0.18100
C2296       C  0.32578659  0.81033494  0.34480884    -0.25900
C2297       C  0.30971213  0.80151145  0.32864180     0.36100
C2298       C  0.31763765  0.78706289  0.31039799    -0.20000
C2299       C  0.34148087  0.78179376  0.30912073    -0.25200
C2300       C  0.35735969  0.79040093  0.32539893     0.27500
H2301       H  0.31988997  0.82160128  0.35861782     0.13200
N2302       N  0.28560156  0.80759443  0.33054120    -0.82500
H2303       H  0.34781743  0.77051927  0.29552487     0.18100
N2304       N  0.38152094  0.78435350  0.32394437    -0.81100
H2305       H  0.28315357  0.81992572  0.34357374     0.33700
H2306       H  0.27667098  0.79281061  0.33600066     0.38200
H2307       H  0.38448350  0.77313268  0.31004959     0.33700
H2308       H  0.39081128  0.79948333  0.32035888     0.30400
H2309       H  0.39135026  0.84657344  0.32428924     0.33700
H2310       H  0.36287521  0.84071002  0.32335795     0.30400
H2311       H  0.40513740  0.79407208  0.42078962     0.38200
H2312       H  0.38479566  0.81195049  0.43258598     0.33700
C2313       C  0.43270084  0.90476919  0.41980804    -0.20000
C2314       C  0.41525748  0.91855140  0.40943977     0.36200
C2315       C  0.41856441  0.94254257  0.40755930    -0.26000
C2316       C  0.43886929  0.95311145  0.41563438     0.02600
C2317       C  0.45678037  0.93924740  0.42509016     0.27400
C2318       C  0.45325351  0.91536310  0.42743810    -0.25100
N2319       N  0.39396175  0.90835898  0.40146722    -0.82500
H2320       H  0.40481886  0.95323390  0.40050437     0.13200
C2321       C  0.43967383  0.97872032  0.41612574     0.02600
N2322       N  0.47870577  0.94867677  0.43235681    -0.81100
H2323       H  0.46698185  0.90495077  0.43492624     0.18100
C2324       C  0.44120898  0.98984986  0.43761629    -0.25900
C2325       C  0.44070767  0.01407620  0.43926511     0.36100
C2326       C  0.43806031  0.02741458  0.41890335    -0.20000
C2327       C  0.43620108  0.01621310  0.39740881    -0.25200
C2328       C  0.43720123  0.99196716  0.39578391     0.27500
H2329       H  0.44258864  0.97949421  0.45321320     0.13200
N2330       N  0.44170465  0.02500032  0.46161397    -0.82500
H2331       H  0.43409481  0.02644434  0.38181492     0.18100
N2332       N  0.43555973  0.98071379  0.37365290    -0.81100
H2333       H  0.44116985  0.01258789  0.47479697     0.33700
H2334       H  0.45789746  0.03299750  0.46301433     0.38200
H2335       H  0.43362342  0.99294259  0.36043351     0.33700
H2336       H  0.45130209  0.97222990  0.37062902     0.30400
H2337       H  0.49168440  0.94049872  0.42268392     0.33700
H2338       H  0.48007498  0.96624436  0.42834330     0.30400
H2339       H  0.38327758  0.92085328  0.39384329     0.38200
H2340       H  0.38506120  0.90215188  0.41597931     0.33700
C2341       C  0.39820309  0.56739843  0.13507996    -0.20000
C2342       C  0.39228475  0.58834516  0.12364582     0.36200
C2343       C  0.37495157  0.60269531  0.13287422    -0.26000
C2344       C  0.36352550  0.59705693  0.15349160     0.02600
C2345       C  0.37011872  0.57667284  0.16561188     0.27400
C2346       C  0.38730465  0.56208180  0.15617662    -0.25100
N2347       N  0.40387850  0.59504852  0.10261233    -0.82500
H2348       H  0.37008444  0.61837615  0.12374874     0.13200
C2349       C  0.34451329  0.61267996  0.16132038     0.02600
N2350       N  0.35982439  0.57016722  0.18735850    -0.81100
H2351       H  0.39174629  0.54619879  0.16515148     0.18100
C2352       C  0.32155882  0.60472721  0.16101244    -0.25900
C2353       C  0.30301469  0.61907540  0.16792206     0.36100
C2354       C  0.30751094  0.64224355  0.17491528    -0.20000
C2355       C  0.33055575  0.65033800  0.17420291    -0.25200
C2356       C  0.34903335  0.63580602  0.16765487     0.27500
H2357       H  0.31815649  0.58708187  0.15558848     0.13200
N2358       N  0.27976378  0.61008059  0.16768649    -0.82500
H2359       H  0.33437228  0.66791826  0.17952461     0.18100
N2360       N  0.37245249  0.64435551  0.16763174    -0.81100
H2361       H  0.27930248  0.59392357  0.15951814     0.33700
H2362       H  0.27494904  0.60699747  0.18486299     0.38200
H2363       H  0.37288113  0.66176746  0.17259969     0.33700
H2364       H  0.38166874  0.63511688  0.18018783     0.30400
H2365       H  0.37306026  0.56978171  0.19970405     0.33700
H2366       H  0.34795841  0.58253399  0.19312995     0.30400
H2367       H  0.39727116  0.61068943  0.09628134     0.38200
H2368       H  0.42129613  0.59802506  0.10664146     0.33700
C2369       C  0.39819297  0.57230611  0.87137762    -0.20000
C2370       C  0.40092078  0.58182549  0.84890906     0.36200
C2371       C  0.38571152  0.59925117  0.84125697    -0.26000
C2372       C  0.36783598  0.60769469  0.85553712     0.02600
C2373       C  0.36512656  0.59841315  0.87792398     0.27400
C2374       C  0.38005254  0.58075937  0.88543563    -0.25100
N2375       N  0.41922005  0.57474311  0.83369689    -0.82500
H2376       H  0.38785305  0.60625810  0.82397977     0.13200
C2377       C  0.35173502  0.62595211  0.84690551     0.02600
N2378       N  0.34740310  0.60722405  0.89311348    -0.81100
H2379       H  0.37755027  0.57374271  0.90265108     0.18100
C2380       C  0.32780049  0.62165682  0.84702142    -0.25900
C2381       C  0.31181760  0.63824186  0.83905363     0.36100
C2382       C  0.31997178  0.65990418  0.83066854    -0.20000
C2383       C  0.34402982  0.66424902  0.83103166    -0.25200
C2384       C  0.35992512  0.64757575  0.83906246     0.27500
H2385       H  0.32155890  0.60498276  0.85300030     0.13200
N2386       N  0.28745650  0.63288282  0.83936507    -0.82500
H2387       H  0.35061564  0.68063794  0.82468367     0.18100
N2388       N  0.38435395  0.65254713  0.83934308    -0.81100
H2389       H  0.28440217  0.61739312  0.84825875     0.33700
H2390       H  0.28238199  0.62983869  0.82227041     0.38200
H2391       H  0.38757577  0.66915432  0.83285596     0.33700
H2392       H  0.38971184  0.65260114  0.85662368     0.30400
H2393       H  0.34761814  0.59850062  0.90897763     0.33700
H2394       H  0.35134643  0.62454515  0.89664669     0.30400
H2395       H  0.41709227  0.55719792  0.82981359     0.38200
H2396       H  0.43507253  0.57712339  0.84212745     0.33700
C2397       C  0.42971979  0.53668895  0.94138580    -0.20000
C2398       C  0.43165075  0.51549998  0.95355681     0.36200
C2399       C  0.43233196  0.51576475  0.97785476    -0.26000
C2400       C  0.43095946  0.53666633  0.99005281     0.02600
C2401       C  0.42894016  0.55776980  0.97805094     0.27400
C2402       C  0.42831077  0.55758093  0.95379119    -0.25100
N2403       N  0.43238494  0.49382601  0.94130479    -0.82500
H2404       H  0.43365952  0.49962902  0.98737418     0.13200
C2405       C  0.43097996  0.53620310  0.01551678     0.02600
N2406       N  0.42766797  0.57925463  0.99058721    -0.81100
H2407       H  0.42687314  0.57384268  0.94451634     0.18100
C2408       C  0.45183670  0.53976354  0.02740559    -0.25900
C2409       C  0.45231270  0.53993012  0.05171042     0.36100
C2410       C  0.43153024  0.53627494  0.06407998    -0.20000
C2411       C  0.41067511  0.53287134  0.05210881    -0.25200
C2412       C  0.41020248  0.53274686  0.02785370     0.27500
H2413       H  0.46765893  0.54264584  0.01767016     0.13200
N2414       N  0.47359271  0.54437700  0.06386800    -0.82500
H2415       H  0.39475678  0.53017889  0.06174463     0.18100
N2416       N  0.38880045  0.52904325  0.01566019    -0.81100
H2417       H  0.48718529  0.54706104  0.05218508     0.33700
H2418       H  0.47153411  0.55991515  0.07294456     0.38200
H2419       H  0.37515970  0.52647022  0.02732796     0.33700
H2420       H  0.38495745  0.54420942  0.00653474     0.30400
H2421       H  0.42654246  0.59325424  0.97914735     0.33700
H2422       H  0.41226625  0.57917661  0.00015767     0.30400
H2423       H  0.41642986  0.49172767  0.93298682     0.38200
H2424       H  0.43402702  0.47996686  0.95285453     0.33700
C2425       C  0.68286732  0.27085809  0.17102131    -0.20000
C2426       C  0.66149996  0.26487257  0.16045229     0.36200
C2427       C  0.64609620  0.28252024  0.15353462    -0.26000
C2428       C  0.65137285  0.30593628  0.15708517     0.02600
C2429       C  0.67279136  0.31203105  0.16702279     0.27400
C2430       C  0.68830433  0.29447432  0.17387115    -0.25100
N2431       N  0.65562110  0.24102672  0.15629721    -0.82500
H2432       H  0.62980710  0.27801967  0.14535587     0.13200
C2433       C  0.63497685  0.32391501  0.14868769     0.02600
N2434       N  0.67854315  0.33602766  0.17037283    -0.81100
H2435       H  0.70448312  0.29929739  0.18207137     0.18100
C2436       C  0.61702385  0.33167060  0.16325623    -0.25900
C2437       C  0.60059688  0.34801573  0.15559851     0.36100
C2438       C  0.60208139  0.35695208  0.13277619    -0.20000
C2439       C  0.62046899  0.34935572  0.11856080    -0.25200
C2440       C  0.63674330  0.33303892  0.12607134     0.27500
H2441       H  0.61557164  0.32468865  0.18061676     0.13200
N2442       N  0.58229667  0.35446416  0.17109260    -0.82500
H2443       H  0.62219565  0.35594118  0.10107388     0.18100
N2444       N  0.65442685  0.32585148  0.10998624    -0.81100
H2445       H  0.56641155  0.35079396  0.16320245     0.33700
H2446       H  0.58337581  0.37225620  0.17423250     0.38200
H2447       H  0.66471799  0.34030585  0.10631408     0.33700
H2448       H  0.66543758  0.31333598  0.11697243     0.30400
H2449       H  0.69477951  0.33761145  0.17824946     0.33700
H2450       H  0.68002757  0.34368187  0.15403357     0.30400
H2451       H  0.65085045  0.23373244  0.17216117     0.38200
H2452       H  0.64090190  0.23988628  0.14580718     0.33700
C2453       C  0.60594250  0.36706299  0.86649218    -0.20000
C2454       C  0.62774579  0.36539565  0.87752181     0.36200
C2455       C  0.64464445  0.35003809  0.86911821    -0.26000
C2456       C  0.64052534  0.33629776  0.84955147     0.02600
C2457       C  0.61919715  0.33876464  0.83767852     0.27400
C2458       C  0.60209944  0.35412239  0.84627810    -0.25100
N2459       N  0.63283293  0.37933975  0.89738813    -0.82500
H2460       H  0.66095835  0.34849890  0.87828565     0.13200
C2461       C  0.65854487  0.31916124  0.84207590     0.02600
N2462       N  0.61492621  0.32549423  0.81708486    -0.81100
H2463       H  0.58544713  0.35532287  0.83769678     0.18100
C2464       C  0.65281593  0.29556704  0.84053631    -0.25900
C2465       C  0.66926028  0.27882395  0.83354671     0.36100
C2466       C  0.69208788  0.28584660  0.82754674    -0.20000
C2467       C  0.69792262  0.30944129  0.83003761    -0.25200
C2468       C  0.68150093  0.32606920  0.83715231     0.27500
H2469       H  0.63536205  0.29016569  0.84494088     0.13200
N2470       N  0.66259642  0.25486460  0.83219465    -0.82500
H2471       H  0.71529073  0.31518522  0.82577518     0.18100
N2472       N  0.68794989  0.35006889  0.83889489    -0.81100
H2473       H  0.67187471  0.24591847  0.84491685     0.33700
H2474       H  0.64504758  0.25283388  0.83630999     0.38200
H2475       H  0.70548290  0.35231528  0.83483284     0.33700
H2476       H  0.67850415  0.35922509  0.82645145     0.30400
H2477       H  0.59846634  0.32920188  0.81047169     0.33700
H2478       H  0.62690926  0.33082672  0.80457088     0.30400
H2479       H  0.64744942  0.38938333  0.89363057     0.38200
H2480       H  0.63699892  0.36828701  0.91111422     0.33700
C2481       C  0.56654456  0.38953431  0.93827050    -0.20000
C2482       C  0.54704220  0.39731787  0.95098483     0.36200
C2483       C  0.54747118  0.39687599  0.97526516    -0.26000
C2484       C  0.56698165  0.38884446  0.98730207     0.02600
C2485       C  0.58644701  0.38093302  0.97479120     0.27400
C2486       C  0.58597885  0.38124892  0.95048785    -0.25100
N2487       N  0.52658147  0.40536608  0.93946213    -0.82500
H2488       H  0.53233747  0.40266455  0.98480378     0.13200
C2489       C  0.56667601  0.38850529  0.01299891     0.02600
N2490       N  0.60671529  0.37284790  0.98683124    -0.81100
H2491       H  0.60112237  0.37529964  0.94110683     0.18100
C2492       C  0.57021765  0.36746051  0.02461211    -0.25900
C2493       C  0.57023567  0.36634759  0.04889354     0.36100
C2494       C  0.56658944  0.38679424  0.06187999    -0.20000
C2495       C  0.56260717  0.40779007  0.05020340    -0.25200
C2496       C  0.56283981  0.40889949  0.02590054     0.27500
H2497       H  0.57280877  0.35177965  0.01462560     0.13200
N2498       N  0.57362802  0.34447884  0.06034564    -0.82500
H2499       H  0.55996370  0.42353660  0.06007017     0.18100
N2500       N  0.55962263  0.43069626  0.01426512    -0.81100
H2501       H  0.57631314  0.33124332  0.04828324     0.33700
H2502       H  0.55826950  0.34047269  0.06911982     0.38200
H2503       H  0.55695896  0.44401590  0.02624063     0.33700
H2504       H  0.57503259  0.43456599  0.00551880     0.30400
H2505       H  0.61947095  0.36748288  0.97511532     0.33700
H2506       H  0.61362783  0.38688686  0.99592855     0.30400
H2507       H  0.52335041  0.42236391  0.94483693     0.38200
H2508       H  0.51263532  0.39506889  0.94477099     0.33700
C2509       C  0.40247001  0.09859105  0.60686896    -0.20000
C2510       C  0.39209886  0.12071154  0.60479991     0.36200
C2511       C  0.37665270  0.12839926  0.62216227    -0.26000
C2512       C  0.37118672  0.11428220  0.64120042     0.02600
C2513       C  0.38211982  0.09269055  0.64373307     0.27400
C2514       C  0.39762576  0.08510373  0.62664135    -0.25100
N2515       N  0.39657750  0.13492740  0.58486398    -0.82500
H2516       H  0.36833746  0.14516529  0.62056533     0.13200
C2517       C  0.35409989  0.12215613  0.65865592     0.02600
N2518       N  0.37713162  0.07842331  0.66354434    -0.81100
H2519       H  0.40572075  0.06827606  0.62865027     0.18100
C2520       C  0.33153358  0.11301099  0.65847267    -0.25900
C2521       C  0.31516902  0.11937070  0.67548588     0.36100
C2522       C  0.32168049  0.13509636  0.69304415    -0.20000
C2523       C  0.34445809  0.14390974  0.69320769    -0.25200
C2524       C  0.36068039  0.13761747  0.67621955     0.27500
H2525       H  0.32676372  0.10080563  0.64505489     0.13200
N2526       N  0.29216470  0.10980000  0.67508327    -0.82500
H2527       H  0.34955852  0.15620738  0.70641429     0.18100
N2528       N  0.38381079  0.14690983  0.67665590    -0.81100
H2529       H  0.29019805  0.09863485  0.66097526     0.33700
H2530       H  0.29017099  0.09969030  0.68997751     0.38200
H2531       H  0.38580261  0.15831685  0.69056427     0.33700
H2532       H  0.39523384  0.13314286  0.67958030     0.30400
H2533       H  0.38638287  0.06285855  0.66269270     0.33700
H2534       H  0.38309257  0.08716502  0.67822082     0.30400
H2535       H  0.38955239  0.12649250  0.57048141     0.38200
H2536       H  0.38787707  0.15076689  0.58627240     0.33700
C2537       C  0.38518104  0.83447049  0.59595594    -0.20000
C2538       C  0.38673612  0.81149052  0.60464897     0.36200
C2539       C  0.37081666  0.80373617  0.62143704    -0.26000
C2540       C  0.35317808  0.81822181  0.62995376     0.02600
C2541       C  0.35142440  0.84107949  0.62134721     0.27400
C2542       C  0.36718569  0.84872748  0.60452592    -0.25100
N2543       N  0.40435464  0.79566396  0.59721452    -0.82500
H2544       H  0.37222784  0.78616746  0.62792594     0.13200
C2545       C  0.33658159  0.80902378  0.64745448     0.02600
N2546       N  0.33432222  0.85728531  0.62959865    -0.81100
H2547       H  0.36530430  0.86634829  0.59833677     0.18100
C2548       C  0.34321046  0.80759867  0.67075810    -0.25900
C2549       C  0.32788348  0.79907386  0.68785476     0.36100
C2550       C  0.30510877  0.79221640  0.68151784    -0.20000
C2551       C  0.29864840  0.79397636  0.65802328    -0.25200
C2552       C  0.31410103  0.80211010  0.64101523     0.27500
H2553       H  0.36055960  0.81294776  0.67556210     0.13200
N2554       N  0.33562215  0.79711143  0.71141580    -0.82500
H2555       H  0.28147639  0.78862136  0.65267584     0.18100
N2556       N  0.30723983  0.80280659  0.61709909    -0.81100
H2557       H  0.35227740  0.80402484  0.71324974     0.33700
H2558       H  0.33708608  0.77945211  0.71519977     0.38200
H2559       H  0.29043790  0.79630960  0.61510320     0.33700
H2560       H  0.30661705  0.82015899  0.61198838     0.30400
H2561       H  0.32333907  0.86127164  0.61577208     0.33700
H2562       H  0.32398015  0.85029716  0.64267924     0.30400
H2563       H  0.40256804  0.79289621  0.57943369     0.38200
H2564       H  0.42059104  0.80293779  0.60062809     0.33700
C2565       C  0.42633529  0.02772099  0.56729498    -0.20000
C2566       C  0.40628184  0.01558274  0.57432227     0.36200
C2567       C  0.40565324  0.99144111  0.57260338    -0.26000
C2568       C  0.42477507  0.97896269  0.56428415     0.02600
C2569       C  0.44478188  0.99097449  0.55690580     0.27400
C2570       C  0.44527472  0.01528891  0.55829672    -0.25100
N2571       N  0.38628926  0.02767099  0.58280353    -0.82500
H2572       H  0.39006857  0.98233792  0.57785883     0.13200
C2573       C  0.42344628  0.95332719  0.56379181     0.02600
N2574       N  0.46460958  0.97843251  0.54847189    -0.81100
H2575       H  0.46073031  0.02450663  0.55288972     0.18100
C2576       C  0.42693779  0.94148422  0.54287427    -0.25900
C2577       C  0.42474580  0.91726231  0.54169066     0.36100
C2578       C  0.41866380  0.90474977  0.56184895    -0.20000
C2579       C  0.41510934  0.91667881  0.58270424    -0.25200
C2580       C  0.41781812  0.94076400  0.58398197     0.27500
H2581       H  0.43101940  0.95122862  0.52735716     0.13200
N2582       N  0.42831596  0.90542936  0.52007638    -0.82500
H2583       H  0.41085403  0.90708968  0.59827092     0.18100
N2584       N  0.41518258  0.95252645  0.60576938    -0.81100
H2585       H  0.43289929  0.91715380  0.50704439     0.33700
H2586       H  0.41247540  0.89812410  0.51518478     0.38200
H2587       H  0.41097817  0.94079497  0.61891800     0.33700
H2588       H  0.43128055  0.95964017  0.61008034     0.30400
H2589       H  0.47795970  0.98982855  0.54393223     0.33700
H2590       H  0.47083561  0.96830542  0.56211274     0.30400
H2591       H  0.38266880  0.02160860  0.59948144     0.38200
H2592       H  0.37221435  0.02355333  0.57218685     0.33700
C2593       C  0.13131590  0.35819261  0.60901916    -0.20000
C2594       C  0.12298858  0.35440897  0.63178827     0.36200
C2595       C  0.13266774  0.33670915  0.64536203    -0.26000
C2596       C  0.15072292  0.32281528  0.63697227     0.02600
C2597       C  0.15967925  0.32699885  0.61459525     0.27400
C2598       C  0.14989111  0.34469429  0.60081339    -0.25100
N2599       N  0.10477019  0.36865073  0.64114988    -0.82500
H2600       H  0.12596736  0.33357531  0.66262008     0.13200
C2601       C  0.15979638  0.30395566  0.65204349     0.02600
N2602       N  0.17858592  0.31322694  0.60598617    -0.81100
H2603       H  0.15638150  0.34756836  0.58343961     0.18100
C2604       C  0.15720383  0.28074436  0.64528829    -0.25900
C2605       C  0.16429379  0.26243155  0.65983786     0.36100
C2606       C  0.17440720  0.26748770  0.68157381    -0.20000
C2607       C  0.17668733  0.29080852  0.68830739    -0.25200
C2608       C  0.16965656  0.30902001  0.67376345     0.27500
H2609       H  0.14923203  0.27692599  0.62875285     0.13200
N2610       N  0.16101875  0.23880940  0.65269060    -0.82500
H2611       H  0.18468502  0.29494945  0.70474922     0.18100
N2612       N  0.17274031  0.33270547  0.68082810    -0.81100
H2613       H  0.15352260  0.23812327  0.63623622     0.33700
H2614       H  0.14911949  0.23125837  0.66409580     0.38200
H2615       H  0.18016614  0.33352551  0.69730703     0.33700
H2616       H  0.18459118  0.34032727  0.66942063     0.30400
H2617       H  0.18309458  0.31841215  0.58923028     0.33700
H2618       H  0.19299406  0.31652326  0.61644574     0.30400
H2619       H  0.11115029  0.38556210  0.64234393     0.38200
H2620       H  0.10055132  0.36348961  0.65798868     0.33700
C2621       C  0.86557753  0.35961691  0.60093879    -0.20000
C2622       C  0.84302890  0.36072076  0.61052082     0.36200
C2623       C  0.83562171  0.34315671  0.62591928    -0.26000
C2624       C  0.85012531  0.32439306  0.63169286     0.02600
C2625       C  0.87219358  0.32280573  0.62126912     0.27400
C2626       C  0.87956544  0.34027406  0.60602519    -0.25100
N2627       N  0.82812119  0.38002429  0.60546173    -0.82500
H2628       H  0.81850396  0.34416387  0.63361687     0.13200
C2629       C  0.84224734  0.30658317  0.64878576     0.02600
N2630       N  0.88735108  0.30377086  0.62671542    -0.81100
H2631       H  0.89675293  0.33905057  0.59850770     0.18100
C2632       C  0.84181035  0.28315104  0.64232679    -0.25900
C2633       C  0.83487885  0.26573607  0.65795458     0.36100
C2634       C  0.82753783  0.27187142  0.68057588    -0.20000
C2635       C  0.82855643  0.29534376  0.68717006    -0.25200
C2636       C  0.83593460  0.31268315  0.67160056     0.27500
H2637       H  0.84686990  0.27842320  0.62488655     0.13200
N2638       N  0.83522687  0.24187231  0.65081348    -0.82500
H2639       H  0.82302182  0.30032725  0.70438876     0.18100
N2640       N  0.83702078  0.33647993  0.67886296    -0.81100
H2641       H  0.84077102  0.24037963  0.63363804     0.33700
H2642       H  0.84757756  0.23331383  0.66093433     0.38200
H2643       H  0.83169175  0.33812765  0.69609010     0.33700
H2644       H  0.85440912  0.34158417  0.67826844     0.30400
H2645       H  0.90290200  0.30505209  0.61746953     0.33700
H2646       H  0.89163250  0.30502126  0.64424850     0.30400
H2647       H  0.82345583  0.37882994  0.58802679     0.38200
H2648       H  0.81268519  0.37878934  0.61490419     0.33700
C2649       C  0.05961288  0.39624928  0.58390398    -0.20000
C2650       C  0.04825520  0.41792089  0.58383175     0.36200
C2651       C  0.02386705  0.41871314  0.58382415    -0.26000
C2652       C  0.01068073  0.39832563  0.58421461     0.02600
C2653       C  0.02208329  0.37658827  0.58484866     0.27400
C2654       C  0.04636470  0.37588393  0.58487344    -0.25100
N2655       N  0.06146803  0.43901063  0.58413342    -0.82500
H2656       H  0.01504401  0.43530143  0.58347832     0.13200
C2657       C  0.98511081  0.40021160  0.58316291     0.02600
N2658       N  0.00975214  0.35492178  0.58469848    -0.81100
H2659       H  0.05495488  0.35917100  0.58494287     0.18100
C2660       C  0.97454678  0.40425930  0.56171111    -0.25900
C2661       C  0.95026170  0.40445213  0.55953007     0.36100
C2662       C  0.93634625  0.40073961  0.57935820    -0.20000
C2663       C  0.94704033  0.39736391  0.60094201    -0.25200
C2664       C  0.97131553  0.39718917  0.60307340     0.27500
H2665       H  0.98534265  0.40660140  0.54651471     0.13200
N2666       N  0.93977911  0.40757324  0.53717296    -0.82500
H2667       H  0.93638468  0.39472359  0.61618488     0.18100
N2668       N  0.98201564  0.39413176  0.62533258    -0.81100
H2669       H  0.95246441  0.41028292  0.52450878     0.33700
H2670       H  0.93138409  0.39211515  0.53285724     0.38200
H2671       H  0.96939964  0.39275853  0.63828104     0.33700
H2672       H  0.99090704  0.37835331  0.62512892     0.30400
H2673       H  0.01322062  0.34650476  0.60034597     0.33700
H2674       H  0.99183344  0.35725682  0.58387764     0.30400
H2675       H  0.07093543  0.43931181  0.59955153     0.38200
H2676       H  0.05032220  0.45328319  0.58475946     0.33700
C2677       C  0.60978321  0.10088029  0.40284056    -0.20000
C2678       C  0.63281210  0.09266327  0.40132632     0.36200
C2679       C  0.64828985  0.10252076  0.38544958    -0.26000
C2680       C  0.64149904  0.12074634  0.37096567     0.02600
C2681       C  0.61880528  0.12980144  0.37299557     0.27400
C2682       C  0.60313606  0.11978431  0.38898120    -0.25100
N2683       N  0.64070282  0.07432512  0.41604043    -0.82500
H2684       H  0.66573328  0.09560606  0.38418597     0.13200
C2685       C  0.65856873  0.12968857  0.35375659     0.02600
N2686       N  0.61177072  0.14896901  0.35875711    -0.81100
H2687       H  0.58551836  0.12623670  0.39007827     0.18100
C2688       C  0.65406833  0.12755947  0.32998357    -0.25900
C2689       C  0.67089664  0.13363951  0.31326837     0.36100
C2690       C  0.69275314  0.14227029  0.32053534    -0.20000
C2691       C  0.69697225  0.14446019  0.34445135    -0.25200
C2692       C  0.68017483  0.13841126  0.36101676     0.27500
H2693       H  0.63754897  0.12053765  0.32447570     0.13200
N2694       N  0.66580552  0.13091475  0.28907028    -0.82500
H2695       H  0.71337655  0.15135856  0.35040054     0.18100
N2696       N  0.68492812  0.14116199  0.38528847    -0.81100
H2697       H  0.64884856  0.12494800  0.28674093     0.33700
H2698       H  0.67675972  0.11798413  0.28262762     0.38200
H2699       H  0.70164441  0.14768472  0.38783178     0.33700
H2700       H  0.67342236  0.15360181  0.39173813     0.30400
H2701       H  0.59457548  0.15352768  0.36230927     0.33700
H2702       H  0.62196850  0.16321887  0.36333268     0.30400
H2703       H  0.64679740  0.06089617  0.40551511     0.38200
H2704       H  0.65468017  0.08051063  0.42574439     0.33700
C2705       C  0.60149883  0.83001882  0.39905010    -0.20000
C2706       C  0.60315558  0.83947666  0.37651109     0.36200
C2707       C  0.61856063  0.82966456  0.36040420    -0.26000
C2708       C  0.63244197  0.81061507  0.36623156     0.02600
C2709       C  0.63041847  0.80070346  0.38849784     0.27400
C2710       C  0.61481939  0.81043150  0.40468655    -0.25100
N2711       N  0.58925646  0.85916028  0.37010707    -0.82500
H2712       H  0.62001904  0.83710817  0.34323563     0.13200
C2713       C  0.64884792  0.80138194  0.34855941     0.02600
N2714       N  0.64438122  0.78100604  0.39461394    -0.81100
H2715       H  0.61369049  0.80326666  0.42199012     0.18100
C2716       C  0.67285133  0.80369904  0.35177597    -0.25900
C2717       C  0.68878006  0.79648137  0.33463420     0.36100
C2718       C  0.68046922  0.78640680  0.31382396    -0.20000
C2719       C  0.65629930  0.78432682  0.31078517    -0.25200
C2720       C  0.64051825  0.79156963  0.32788756     0.27500
H2721       H  0.67914607  0.81156191  0.36759137     0.13200
N2722       N  0.71324710  0.79942140  0.33838779    -0.82500
H2723       H  0.64954514  0.77650762  0.29515320     0.18100
N2724       N  0.61597693  0.78881090  0.32446179    -0.81100
H2725       H  0.71638542  0.80651302  0.35473577     0.33700
H2726       H  0.71921045  0.81155008  0.32631870     0.38200
H2727       H  0.61259975  0.78137637  0.30831750     0.33700
H2728       H  0.60997464  0.77709319  0.33691219     0.30400
H2729       H  0.64096718  0.77589292  0.41164639     0.33700
H2730       H  0.63938170  0.76723277  0.38398970     0.30400
H2731       H  0.57187651  0.85403138  0.37069356     0.38200
H2732       H  0.59266666  0.86412324  0.35302899     0.33700
C2733       C  0.57820580  0.90349169  0.43447405    -0.20000
C2734       C  0.57234165  0.91680700  0.45421501     0.36200
C2735       C  0.57199792  0.94110990  0.45259596    -0.26000
C2736       C  0.57777117  0.95237103  0.43188860     0.02600
C2737       C  0.58405597  0.93925401  0.41233667     0.27400
C2738       C  0.58426804  0.91496988  0.41382753    -0.25100
N2739       N  0.56709284  0.90572214  0.47589465    -0.82500
H2740       H  0.56747893  0.95139882  0.46763075     0.13200
C2741       C  0.57740171  0.97799431  0.43104345     0.02600
N2742       N  0.58991668  0.95067978  0.39099377    -0.81100
H2743       H  0.58872209  0.90498438  0.39858437     0.18100
C2744       C  0.59832382  0.99005589  0.42861063    -0.25900
C2745       C  0.59880257  0.01439903  0.42851744     0.36100
C2746       C  0.57777273  0.02693044  0.43051951    -0.20000
C2747       C  0.55683272  0.01468400  0.43294163    -0.25200
C2748       C  0.55643157  0.99034098  0.43307497     0.27500
H2749       H  0.61438732  0.98038121  0.42725157     0.13200
N2750       N  0.62061300  0.02632894  0.42705474    -0.82500
H2751       H  0.54064930  0.02413310  0.43436650     0.18100
N2752       N  0.53483195  0.97805978  0.43507090    -0.81100
H2753       H  0.63431757  0.01457064  0.42537258     0.33700
H2754       H  0.62311843  0.03496286  0.44275897     0.38200
H2755       H  0.52097737  0.98967613  0.43647794     0.33700
H2756       H  0.53234009  0.96887112  0.41968072     0.30400
H2757       H  0.59423646  0.93855002  0.37825776     0.33700
H2758       H  0.57507699  0.95930635  0.38516752     0.30400
H2759       H  0.58217092  0.89737962  0.48152411     0.38200
H2760       H  0.56293865  0.91801014  0.48853504     0.33700
C2761       C  0.13476770  0.55812266  0.39680950    -0.20000
C2762       C  0.12522910  0.56106809  0.37443544     0.36200
C2763       C  0.13395919  0.57840281  0.35975818    -0.26000
C2764       C  0.15235024  0.59268828  0.36662408     0.02600
C2765       C  0.16263175  0.58908665  0.38856183     0.27400
C2766       C  0.15373828  0.57180252  0.40344460    -0.25100
N2767       N  0.10651681  0.54651296  0.36674791    -0.82500
H2768       H  0.12605343  0.58109560  0.34296660     0.13200
C2769       C  0.16008304  0.61168177  0.35080639     0.02600
N2770       N  0.18187583  0.60316675  0.39571190    -0.81100
H2771       H  0.16107445  0.56957804  0.42055703     0.18100
C2772       C  0.15983525  0.63469085  0.35865622    -0.25900
C2773       C  0.16653028  0.65318497  0.34416531     0.36100
C2774       C  0.17373343  0.64862275  0.32113276    -0.20000
C2775       C  0.17331867  0.62556482  0.31316709    -0.25200
C2776       C  0.16676723  0.60711428  0.32773685     0.27500
H2777       H  0.15417191  0.63825719  0.37618837     0.13200
N2778       N  0.16602105  0.67651881  0.35285553    -0.82500
H2779       H  0.17894109  0.62173188  0.29568454     0.18100
N2780       N  0.16733581  0.58367377  0.31932415    -0.81100
H2781       H  0.16073386  0.67680260  0.37017350     0.33700
H2782       H  0.15342541  0.68557915  0.34350060     0.38200
H2783       H  0.17257583  0.58322271  0.30199700     0.33700
H2784       H  0.17994669  0.57473224  0.32877039     0.30400
H2785       H  0.18734075  0.59846441  0.41231163     0.33700
H2786       H  0.19570645  0.59967811  0.38451750     0.30400
H2787       H  0.11280964  0.52953760  0.36590989     0.38200
H2788       H  0.10138767  0.55098419  0.34997775     0.33700
C2789       C  0.87014443  0.56458669  0.39284851    -0.20000
C2790       C  0.84626612  0.56610480  0.38717037     0.36200
C2791       C  0.83865011  0.58347425  0.37168542    -0.26000
C2792       C  0.85423866  0.59948112  0.36204060     0.02600
C2793       C  0.87788766  0.59805394  0.36759447     0.27400
C2794       C  0.88554418  0.58082144  0.38290631    -0.25100
N2795       N  0.82986761  0.54994407  0.39668131    -0.82500
H2796       H  0.82042918  0.58473553  0.36728822     0.13200
C2797       C  0.84576736  0.61800616  0.34634236     0.02600
N2798       N  0.89408239  0.61410496  0.35749458    -0.81100
H2799       H  0.90385350  0.58015474  0.38698666     0.18100
C2800       C  0.84568211  0.64099762  0.35411272    -0.25900
C2801       C  0.83818944  0.65919246  0.33972324     0.36100
C2802       C  0.83040243  0.65422999  0.31699116    -0.20000
C2803       C  0.83128258  0.63116395  0.30907322    -0.25200
C2804       C  0.83891389  0.61304630  0.32350820     0.27500
H2805       H  0.85145649  0.64471358  0.37156350     0.13200
N2806       N  0.83839036  0.68260844  0.34821532    -0.82500
H2807       H  0.82535457  0.62709073  0.29176461     0.18100
N2808       N  0.83961808  0.58960134  0.31515349    -0.81100
H2809       H  0.84425131  0.68316653  0.36532491     0.33700
H2810       H  0.85042344  0.69188669  0.33832764     0.38200
H2811       H  0.83386871  0.58881315  0.29801711     0.33700
H2812       H  0.85697292  0.58433116  0.31502104     0.30400
H2813       H  0.91089809  0.61085432  0.36342093     0.33700
H2814       H  0.89429307  0.61118286  0.33963383     0.30400
H2815       H  0.82814630  0.55371141  0.41429572     0.38200
H2816       H  0.81345517  0.55250695  0.38943867     0.33700
C2817       C  0.93960436  0.52675782  0.42372978    -0.20000
C2818       C  0.95140574  0.52192044  0.44466392     0.36200
C2819       C  0.97576152  0.52169309  0.44485777    -0.26000
C2820       C  0.98844149  0.52649675  0.42475831     0.02600
C2821       C  0.97683590  0.53115236  0.40386281     0.27400
C2822       C  0.95249350  0.53126370  0.40355397    -0.25100
N2823       N  0.93873742  0.51790443  0.46575058    -0.82500
H2824       H  0.98495748  0.51822946  0.46084154     0.13200
C2825       C  0.01397257  0.52704168  0.42599354     0.02600
N2826       N  0.98984514  0.53551941  0.38306145    -0.81100
H2827       H  0.94353491  0.53485802  0.38747126     0.18100
C2828       C  0.02611911  0.50614903  0.42355119    -0.25900
C2829       C  0.05046509  0.50566897  0.42419517     0.36100
C2830       C  0.06273380  0.52649014  0.42761680    -0.20000
C2831       C  0.05056879  0.54739758  0.42998315    -0.25200
C2832       C  0.02631052  0.54796488  0.42934410     0.27500
H2833       H  0.01653219  0.49022921  0.42085302     0.13200
N2834       N  0.06276611  0.48428234  0.42074858    -0.82500
H2835       H  0.06001517  0.56342328  0.43256902     0.18100
N2836       N  0.01492573  0.56994470  0.43242570    -0.81100
H2837       H  0.05106918  0.47076299  0.41786045     0.33700
H2838       H  0.07251273  0.48591971  0.40555870     0.38200
H2839       H  0.01948252  0.58048412  0.41841625     0.33700
H2840       H  0.99690251  0.56839366  0.43215618     0.30400
H2841       H  0.97867426  0.53817240  0.36906680     0.33700
H2842       H  0.99894971  0.55100084  0.38536801     0.30400
H2843       H  0.93022904  0.53332075  0.47005291     0.38200
H2844       H  0.95005647  0.51427412  0.47940425     0.33700
C2845       C  0.69346090  0.64234841  0.17432097    -0.20000
C2846       C  0.70078840  0.62061455  0.16540795     0.36200
C2847       C  0.68417369  0.60449286  0.15773688    -0.26000
C2848       C  0.66040162  0.60949610  0.15855801     0.02600
C2849       C  0.65302159  0.63123697  0.16689295     0.27400
C2850       C  0.66957172  0.64740429  0.17469759    -0.25100
N2851       N  0.72504081  0.61489320  0.16415873    -0.82500
H2852       H  0.68976988  0.58787317  0.15101426     0.13200
C2853       C  0.64348743  0.59229461  0.14942476     0.02600
N2854       N  0.62871743  0.63678902  0.16737450    -0.81100
H2855       H  0.66369663  0.66383917  0.18160700     0.18100
C2856       C  0.62730421  0.58181439  0.16430937    -0.25900
C2857       C  0.61041940  0.56622072  0.15586149     0.36100
C2858       C  0.60933238  0.56150406  0.13180262    -0.20000
C2859       C  0.62635490  0.57141313  0.11726415    -0.25200
C2860       C  0.64324802  0.58668969  0.12574813     0.27500
H2861       H  0.62785538  0.58589047  0.18260486     0.13200
N2862       N  0.59426406  0.55566157  0.17161056    -0.82500
H2863       H  0.62631464  0.56767224  0.09891682     0.18100
N2864       N  0.65988681  0.59698093  0.11027686    -0.81100
H2865       H  0.59681215  0.56183375  0.18842687     0.33700
H2866       H  0.59804911  0.53794769  0.17212691     0.38200
H2867       H  0.65751515  0.59095528  0.09338194     0.33700
H2868       H  0.65672689  0.61481923  0.10989929     0.30400
H2869       H  0.62609586  0.65338747  0.17413267     0.33700
H2870       H  0.62286735  0.63721690  0.15025731     0.30400
H2871       H  0.73273452  0.62623065  0.15229984     0.38200
H2872       H  0.72740689  0.59817326  0.15760064     0.33700
C2873       C  0.59284627  0.57293013  0.86478868    -0.20000
C2874       C  0.59660593  0.59476038  0.87522326     0.36200
C2875       C  0.61305111  0.61002312  0.86596008    -0.26000
C2876       C  0.62578421  0.60428680  0.84612276     0.02600
C2877       C  0.62143938  0.58298473  0.83491032     0.27400
C2878       C  0.60499888  0.56745988  0.84437926    -0.25100
N2879       N  0.58354716  0.60168747  0.89517871    -0.82500
H2880       H  0.61600378  0.62650534  0.87444791     0.13200
C2881       C  0.64319898  0.62120211  0.83733567     0.02600
N2882       N  0.63374439  0.57723517  0.81404197    -0.81100
H2883       H  0.60215565  0.55082654  0.83618440     0.18100
C2884       C  0.66686871  0.61547419  0.83716801    -0.25900
C2885       C  0.68386127  0.63177623  0.83042448     0.36100
C2886       C  0.67694871  0.65435334  0.82351820    -0.20000
C2887       C  0.65312906  0.65987985  0.82396151    -0.25200
C2888       C  0.63630013  0.64359275  0.83056001     0.27500
H2889       H  0.67210920  0.59830699  0.84268827     0.13200
N2890       N  0.70795162  0.62533854  0.83049536    -0.82500
H2891       H  0.64737811  0.67691091  0.81856885     0.18100
N2892       N  0.61209393  0.64961272  0.83016214    -0.81100
H2893       H  0.70992911  0.60798721  0.83532910     0.33700
H2894       H  0.71616093  0.63517865  0.84327132     0.38200
H2895       H  0.60983274  0.66678194  0.82483587     0.33700
H2896       H  0.60409083  0.63922004  0.81769419     0.30400
H2897       H  0.62857839  0.56098446  0.80795063     0.33700
H2898       H  0.62894824  0.58928822  0.80140204     0.30400
H2899       H  0.57471988  0.61699776  0.89115553     0.38200
H2900       H  0.59520543  0.60527931  0.90854869     0.33700
C2901       C  0.56407194  0.53839836  0.93699042    -0.20000
C2902       C  0.55833309  0.51819047  0.94971840     0.36200
C2903       C  0.55833372  0.51896016  0.97404244    -0.26000
C2904       C  0.56414277  0.53930567  0.98592896     0.02600
C2905       C  0.56973600  0.55946194  0.97333502     0.27400
C2906       C  0.56974507  0.55877456  0.94904856    -0.25100
N2907       N  0.55307329  0.49682712  0.93804722    -0.82500
H2908       H  0.55436192  0.50343719  0.98383836     0.13200
C2909       C  0.56537953  0.53898026  0.01157089     0.02600
N2910       N  0.57529149  0.58057351  0.98530736    -0.81100
H2911       H  0.57396987  0.57437490  0.93950629     0.18100
C2912       C  0.58654182  0.54400655  0.02230592    -0.25900
C2913       C  0.58872166  0.54357635  0.04644167     0.36100
C2914       C  0.56929898  0.53806218  0.06039187    -0.20000
C2915       C  0.54811011  0.53278111  0.04952174    -0.25200
C2916       C  0.54594499  0.53327199  0.02526255     0.27500
H2917       H  0.60162769  0.54800449  0.01181961     0.13200
N2918       N  0.61091451  0.54817453  0.05654859    -0.82500
H2919       H  0.53307051  0.52855691  0.05996246     0.18100
N2920       N  0.52409864  0.52816046  0.01445525    -0.81100
H2921       H  0.62280088  0.53617506  0.04995449     0.33700
H2922       H  0.61618053  0.56471926  0.05136388     0.38200
H2923       H  0.51166021  0.52374412  0.02686864     0.33700
H2924       H  0.51829096  0.54330580  0.00638180     0.30400
H2925       H  0.57912207  0.59380436  0.97353862     0.33700
H2926       H  0.56046659  0.58579388  0.99435781     0.30400
H2927       H  0.56815942  0.49135525  0.92959026     0.38200
H2928       H  0.54885080  0.48383756  0.94995249     0.33700
C2929       C  0.17769773  0.64089742  0.69294474    -0.20000
C2930       C  0.17184126  0.61748289  0.69757890     0.36200
C2931       C  0.16428927  0.60307602  0.67938244    -0.26000
C2932       C  0.16234284  0.61140583  0.65663280     0.02600
C2933       C  0.16788206  0.63476911  0.65201628     0.27400
C2934       C  0.17529752  0.64923325  0.67015885    -0.25100
N2935       N  0.17347915  0.60834576  0.72067620    -0.82500
H2936       H  0.15962095  0.58525267  0.68299886     0.13200
C2937       C  0.15363847  0.59573591  0.63799248     0.02600
N2938       N  0.16635818  0.64361858  0.62879698    -0.81100
H2939       H  0.17991581  0.66700160  0.66624777     0.18100
C2940       C  0.13375072  0.60210879  0.62558473    -0.25900
C2941       C  0.12434026  0.58758765  0.60847921     0.36100
C2942       C  0.13473956  0.56581854  0.60389891    -0.20000
C2943       C  0.15511451  0.55975223  0.61576983    -0.25200
C2944       C  0.16467115  0.57449008  0.63275989     0.27500
H2945       H  0.12532484  0.61843522  0.62949866     0.13200
N2946       N  0.10421960  0.59491940  0.59573267    -0.82500
H2947       H  0.16320958  0.54316694  0.61229445     0.18100
N2948       N  0.18543338  0.56791450  0.64483776    -0.81100
H2949       H  0.09863018  0.61123621  0.60129002     0.33700
H2950       H  0.10916143  0.59677159  0.57840929     0.38200
H2951       H  0.19133915  0.55177921  0.63908485     0.33700
H2952       H  0.19829869  0.57995034  0.64057910     0.30400
H2953       H  0.17095979  0.66113233  0.62827827     0.33700
H2954       H  0.17856663  0.63474867  0.61874753     0.30400
H2955       H  0.16119821  0.61699152  0.73083345     0.38200
H2956       H  0.16898124  0.59079933  0.72099830     0.33700
C2957       C  0.86765134  0.56448241  0.60418606    -0.20000
C2958       C  0.84343952  0.56546302  0.60840659     0.36200
C2959       C  0.83456351  0.58193792  0.62420302    -0.26000
C2960       C  0.84932710  0.59709637  0.63616626     0.02600
C2961       C  0.87331936  0.59625061  0.63197734     0.27400
C2962       C  0.88219145  0.58006529  0.61615206    -0.25100
N2963       N  0.82796403  0.54960673  0.59708209    -0.82500
H2964       H  0.81609168  0.58265752  0.62761037     0.13200
C2965       C  0.83971954  0.61347323  0.65356801     0.02600
N2966       N  0.88860160  0.61190403  0.64387321    -0.81100
H2967       H  0.90072906  0.57982104  0.61313469     0.18100
C2968       C  0.84351542  0.60920582  0.67715399    -0.25900
C2969       C  0.83508187  0.62444136  0.69424284     0.36100
C2970       C  0.82265598  0.64452805  0.68756626    -0.20000
C2971       C  0.81934729  0.64897401  0.66384475    -0.25200
C2972       C  0.82768616  0.63360635  0.64680294     0.27500
H2973       H  0.85306339  0.59383925  0.68221569     0.13200
N2974       N  0.83915644  0.61959181  0.71831182    -0.82500
H2975       H  0.80966319  0.66418117  0.65858473     0.18100
N2976       N  0.82389321  0.63826228  0.62266137    -0.81100
H2977       H  0.84835793  0.60409488  0.72025729     0.33700
H2978       H  0.84976652  0.63275377  0.72479656     0.38200
H2979       H  0.81455653  0.65365416  0.62055246     0.33700
H2980       H  0.84010204  0.64091682  0.61496738     0.30400
H2981       H  0.90584059  0.60895272  0.63905863     0.33700
H2982       H  0.88452219  0.62871321  0.63847228     0.30400
H2983       H  0.83170560  0.53298934  0.60326589     0.38200
H2984       H  0.81076300  0.55304357  0.60170735     0.33700
C2985       C  0.93901175  0.52942608  0.57376175    -0.20000
C2986       C  0.95164895  0.53136916  0.59462140     0.36200
C2987       C  0.97599023  0.53169465  0.59389253    -0.26000
C2988       C  0.98797646  0.52998080  0.57283637     0.02600
C2989       C  0.97543902  0.52737322  0.55205290     0.27400
C2990       C  0.95107099  0.52693067  0.55275160    -0.25100
N2991       N  0.93976454  0.53274313  0.61647854    -0.82500
H2992       H  0.98573331  0.53320078  0.60984795     0.13200
C2993       C  0.01368990  0.53084313  0.57292787     0.02600
N2994       N  0.98749982  0.52568071  0.53031400    -0.81100
H2995       H  0.94145442  0.52541583  0.53672228     0.18100
C2996       C  0.02626720  0.51196596  0.56430879    -0.25900
C2997       C  0.05062563  0.51186931  0.56447333     0.36100
C2998       C  0.06276978  0.53117178  0.57368201    -0.20000
C2999       C  0.04998896  0.55005728  0.58232490    -0.25200
C3000       C  0.02562612  0.55016943  0.58185745     0.27500
H3001       H  0.01696690  0.49709202  0.55763337     0.13200
N3002       N  0.06290387  0.49216137  0.55540163    -0.82500
H3003       H  0.05900166  0.56502132  0.58915439     0.18100
N3004       N  0.01292106  0.56993364  0.59018404    -0.81100
H3005       H  0.05137812  0.47974702  0.54900010     0.33700
H3006       H  0.07178408  0.48442312  0.56913825     0.38200
H3007       H  0.02425204  0.58269611  0.59623667     0.33700
H3008       H  0.00409322  0.57712185  0.57610533     0.30400
H3009       H  0.97575429  0.52378860  0.51667552     0.33700
H3010       H  0.99614253  0.54136828  0.52757464     0.30400
H3011       H  0.93101707  0.51706838  0.61895428     0.38200
H3012       H  0.95160557  0.53425671  0.63008363     0.33700
C3013       C  0.59548113  0.09865829  0.60977171    -0.20000
C3014       C  0.59581135  0.12226641  0.61649395     0.36200
C3015       C  0.61218623  0.12987420  0.63308420    -0.26000
C3016       C  0.62834715  0.11454397  0.64298769     0.02600
C3017       C  0.62814125  0.09104682  0.63613114     0.27400
C3018       C  0.61185767  0.08352907  0.61980084    -0.25100
N3019       N  0.57920065  0.13829970  0.60714929    -0.82500
H3020       H  0.61237205  0.14788880  0.63835430     0.13200
C3021       C  0.64539851  0.12334477  0.66026162     0.02600
N3022       N  0.64395289  0.07417019  0.64548516    -0.81100
H3023       H  0.61212087  0.06539617  0.61495787     0.18100
C3024       C  0.64010545  0.12218172  0.68392424    -0.25900
C3025       C  0.65614732  0.12948595  0.70076358     0.36100
C3026       C  0.67805588  0.13829442  0.69396918    -0.20000
C3027       C  0.68344845  0.13890593  0.67018685    -0.25200
C3028       C  0.66738218  0.13150200  0.65332481     0.27500
H3029       H  0.62343221  0.11542509  0.68937258     0.13200
N3030       N  0.65012895  0.12767506  0.72476386    -0.82500
H3031       H  0.70004483  0.14574566  0.66464385     0.18100
N3032       N  0.67315966  0.13251192  0.62913694    -0.81100
H3033       H  0.64639482  0.11031738  0.72837507     0.33700
H3034       H  0.63505022  0.13735170  0.72758037     0.38200
H3035       H  0.68983752  0.13923956  0.62683580     0.33700
H3036       H  0.67357679  0.11551908  0.62288904     0.30400
H3037       H  0.65438086  0.06826837  0.63188922     0.33700
H3038       H  0.65510433  0.08130361  0.65775696     0.30400
H3039       H  0.58343380  0.14091670  0.58974723     0.38200
H3040       H  0.58076988  0.15446888  0.61514782     0.33700
C3041       C  0.60071250  0.83465332  0.60204704    -0.20000
C3042       C  0.62338796  0.84390532  0.60330878     0.36200
C3043       C  0.63926160  0.83481764  0.61936244    -0.26000
C3044       C  0.63305342  0.81664903  0.63419091     0.02600
C3045       C  0.61065147  0.80694834  0.63263595     0.27400
C3046       C  0.59466410  0.81602036  0.61649662    -0.25100
N3047       N  0.63024374  0.86246877  0.58817088    -0.82500
H3048       H  0.65662779  0.84192403  0.62035569     0.13200
C3049       C  0.65078770  0.80734784  0.65038013     0.02600
N3050       N  0.60423241  0.78807795  0.64755510    -0.81100
H3051       H  0.57725973  0.80900453  0.61565838     0.18100
C3052       C  0.65001320  0.81308348  0.67397760    -0.25900
C3053       C  0.66733196  0.80529284  0.68942924     0.36100
C3054       C  0.68580396  0.79141626  0.68102066    -0.20000
C3055       C  0.68641785  0.78594774  0.65725473    -0.25200
C3056       C  0.66908401  0.79358899  0.64198099     0.27500
H3057       H  0.63597184  0.82387113  0.68027553     0.13200
N3058       N  0.66623110  0.81154639  0.71348267    -0.82500
H3059       H  0.70018293  0.77505937  0.65055680     0.18100
N3060       N  0.66985185  0.78729753  0.61791172    -0.81100
H3061       H  0.65146494  0.82153333  0.71682974     0.33700
H3062       H  0.68053237  0.82209640  0.71700236     0.38200
H3063       H  0.68447415  0.77715958  0.61440498     0.33700
H3064       H  0.65540141  0.77689918  0.61453785     0.30400
H3065       H  0.58711838  0.78302418  0.64438479     0.33700
H3066       H  0.61471790  0.77391767  0.64329133     0.30400
H3067       H  0.62974092  0.85617029  0.57121453     0.38200
H3068       H  0.64739580  0.86738230  0.59135784     0.33700
C3069       C  0.56269759  0.90616405  0.57626085    -0.20000
C3070       C  0.58172954  0.92070912  0.58128589     0.36200
C3071       C  0.57816568  0.94464754  0.58358036    -0.26000
C3072       C  0.55609544  0.95449599  0.58081718     0.02600
C3073       C  0.53698164  0.93994897  0.57574457     0.27400
C3074       C  0.54063241  0.91606578  0.57321373    -0.25100
N3075       N  0.60470921  0.91127729  0.58342044    -0.82500
H3076       H  0.59284831  0.95585127  0.58699643     0.13200
C3077       C  0.55423640  0.98010799  0.58170222     0.02600
N3078       N  0.51369388  0.94860156  0.57338006    -0.81100
H3079       H  0.52586998  0.90507604  0.56946210     0.18100
C3080       C  0.54771464  0.99214977  0.56169528    -0.25900
C3081       C  0.54841284  0.01640255  0.56086189     0.36100
C3082       C  0.55617965  0.02906067  0.58035976    -0.20000
C3083       C  0.56206897  0.01689371  0.60062936    -0.25200
C3084       C  0.56102034  0.99257631  0.60153777     0.27500
H3085       H  0.54263853  0.98260088  0.54636554     0.13200
N3086       N  0.54197904  0.02790376  0.53984565    -0.82500
H3087       H  0.56767700  0.02634946  0.61581282     0.18100
N3088       N  0.56714080  0.98042068  0.62238242    -0.81100
H3089       H  0.55264579  0.02178331  0.52653096     0.33700
H3090       H  0.52486986  0.02335925  0.53594929     0.38200
H3091       H  0.57188093  0.99208988  0.63537616     0.33700
H3092       H  0.55228983  0.97184415  0.62826899     0.30400
H3093       H  0.50347418  0.94038787  0.58589640     0.33700
H3094       H  0.51269363  0.96624535  0.57711783     0.30400
H3095       H  0.60945225  0.90470826  0.56722561     0.38200
H3096       H  0.61667189  0.92428901  0.58737857     0.33700
loop_ 
_geom_bond_atom_site_label_1 
_geom_bond_atom_site_label_2 
_geom_bond_distance 
_geom_bond_site_symmetry_2 
_ccdc_geom_bond_type 
N1            C6   1.359       .  A
N1            C5   1.358       .  A
N1           H33   1.039       .  S
N2            C9   1.355       .  A
N2           C10   1.355       .  A
N3            C8   1.358       .  A
N3            C7   1.358       .  A
N3           H34   1.039       .  S
N4           C11   1.353       .  A
N4           C12   1.353       .  A
C5           C13   1.388       .  A
C5           C21   1.423       .  A
C6           C22   1.422       .  A
C6           C14   1.387       .  A
C7           C15   1.388       .  A
C7           C24   1.420       .  A
C8           C23   1.422       .  A
C8           C16   1.389       .  A
C9           C21   1.416       .  A
C9           C17   1.386       .  A
C10          C24   1.417       .  A
C10          C18   1.387       .  A
C11          C19   1.386       .  A
C11          C22   1.413       .  A
C12          C20   1.387       .  A
C12          C23   1.413       .  A
C13          C14   1.372       .  A
C13          H25   1.082       .  S
C14          H26   1.082       .  S
C15          C16   1.371       .  A
C15          H27   1.083       .  S
C16          H28   1.082       .  S
C17          C18   1.372       .  A
C17          H29   1.082       .  S
C18          H30   1.083       .  S
C19          C20   1.371       .  A
C19          H31   1.083       .  S
C20          H32   1.082       .  S
C21         C465   1.488       .  S
C22         C417   1.487       .  S
C23         C491   1.485       .  S
C24         C527   1.485       .  S
N35          C40   1.358       .  A
N35          C39   1.359       .  A
N35          H67   1.039       .  S
N36          C43   1.354       .  A
N36          C44   1.354       .  A
N37          C42   1.358       .  A
N37          C41   1.358       .  A
N37          H68   1.038       .  S
N38          C45   1.355       .  A
N38          C46   1.354       .  A
C39          C47   1.387       .  A
C39          C55   1.421       .  A
C40          C56   1.422       .  A
C40          C48   1.388       .  A
C41          C49   1.388       .  A
C41          C58   1.422       .  A
C42          C57   1.421       .  A
C42          C50   1.387       .  A
C43          C55   1.415       .  A
C43          C51   1.386       .  A
C44          C58   1.416       .  A
C44          C52   1.387       .  A
C45          C53   1.387       .  A
C45          C56   1.416       .  A
C46          C54   1.386       .  A
C46          C57   1.416       .  A
C47          C48   1.369       .  A
C47          H59   1.082       .  S
C48          H60   1.082       .  S
C49          C50   1.371       .  A
C49          H61   1.082       .  S
C50          H62   1.082       .  S
C51          C52   1.371       .  A
C51          H63   1.083       .  S
C52          H64   1.082       .  S
C53          C54   1.371       .  A
C53          H65   1.083       .  S
C54          H66   1.083       .  S
C55         C453   1.487       .  S
C56         C431   1.485       .  S
C57         C479   1.487       .  S
C58         C539   1.485       .  S
N69          C74   1.358       .  A
N69          C73   1.359       .  A
N69         H101   1.040       .  S
N70          C77   1.353       .  A
N70          C78   1.354       .  A
N71          C76   1.358       .  A
N71          C75   1.357       .  A
N71         H102   1.039       .  S
N72          C79   1.354       .  A
N72          C80   1.354       .  A
C73          C81   1.388       .  A
C73          C89   1.422       .  A
C74          C90   1.422       .  A
C74          C82   1.388       .  A
C75          C83   1.389       .  A
C75          C92   1.422       .  A
C76          C91   1.420       .  A
C76          C84   1.387       .  A
C77          C89   1.413       .  A
C77          C85   1.386       .  A
C78          C92   1.414       .  A
C78          C86   1.386       .  A
C79          C87   1.387       .  A
C79          C90   1.415       .  A
C80          C88   1.385       .  A
C80          C91   1.414       .  A
C81          C82   1.371       .  A
C81          H93   1.083       .  S
C82          H94   1.082       .  S
C83          C84   1.370       .  A
C83          H95   1.082       .  S
C84          H96   1.082       .  S
C85          C86   1.373       .  A
C85          H97   1.083       .  S
C86          H98   1.082       .  S
C87          C88   1.373       .  A
C87          H99   1.082       .  S
C88         H100   1.083       .  S
C89         C483   1.485       .  S
C90         C411   1.487       .  S
C91         C459   1.487       .  S
C92         C519   1.486       .  S
N103        C108   1.357       .  A
N103        C107   1.358       .  A
N103        H135   1.039       .  S
N104        C111   1.354       .  A
N104        C112   1.353       .  A
N105        C110   1.357       .  A
N105        C109   1.358       .  A
N105        H136   1.039       .  S
N106        C113   1.354       .  A
N106        C114   1.354       .  A
C107        C115   1.387       .  A
C107        C123   1.419       .  A
C108        C124   1.421       .  A
C108        C116   1.388       .  A
C109        C117   1.387       .  A
C109        C126   1.420       .  A
C110        C125   1.420       .  A
C110        C118   1.388       .  A
C111        C123   1.414       .  A
C111        C119   1.386       .  A
C112        C126   1.414       .  A
C112        C120   1.387       .  A
C113        C121   1.387       .  A
C113        C124   1.415       .  A
C114        C122   1.386       .  A
C114        C125   1.414       .  A
C115        C116   1.372       .  A
C115        H127   1.082       .  S
C116        H128   1.082       .  S
C117        C118   1.372       .  A
C117        H129   1.082       .  S
C118        H130   1.083       .  S
C119        C120   1.372       .  A
C119        H131   1.083       .  S
C120        H132   1.082       .  S
C121        C122   1.372       .  A
C121        H133   1.082       .  S
C122        H134   1.083       .  S
C123        C473   1.486       .  S
C124        C533   1.484       .  S
C125        C449   1.484       .  S
C126        C425   1.484       .  S
N137        C142   1.358       .  A
N137        C141   1.357       .  A
N137        H169   1.040       .  S
N138        C145   1.354       .  A
N138        C146   1.354       .  A
N139        C144   1.358       .  A
N139        C143   1.358       .  A
N139        H170   1.040       .  S
N140        C147   1.354       .  A
N140        C148   1.353       .  A
C141        C149   1.388       .  A
C141        C157   1.420       .  A
C142        C158   1.421       .  A
C142        C150   1.388       .  A
C143        C151   1.388       .  A
C143        C160   1.421       .  A
C144        C159   1.420       .  A
C144        C152   1.388       .  A
C145        C157   1.415       .  A
C145        C153   1.386       .  A
C146        C160   1.415       .  A
C146        C154   1.386       .  A
C147        C155   1.386       .  A
C147        C158   1.414       .  A
C148        C156   1.386       .  A
C148        C159   1.413       .  A
C149        C150   1.371       .  A
C149        H161   1.082       .  S
C150        H162   1.082       .  S
C151        C152   1.371       .  A
C151        H163   1.082       .  S
C152        H164   1.082       .  S
C153        C154   1.373       .  A
C153        H165   1.083       .  S
C154        H166   1.083       .  S
C155        C156   1.372       .  A
C155        H167   1.082       .  S
C156        H168   1.083       .  S
C157        C441   1.485       .  S
C158        C503   1.486       .  S
C159        C549   1.484       .  S
C160        C513   1.486       .  S
N171        C176   1.358       .  A
N171        C175   1.358       .  A
N171        H203   1.038       .  S
N172        C179   1.354       .  A
N172        C180   1.354       .  A
N173        C178   1.359       .  A
N173        C177   1.358       .  A
N173        H204   1.038       .  S
N174        C181   1.355       .  A
N174        C182   1.355       .  A
C175        C183   1.388       .  A
C175        C191   1.422       .  A
C176        C192   1.421       .  A
C176        C184   1.388       .  A
C177        C185   1.388       .  A
C177        C194   1.422       .  A
C178        C193   1.421       .  A
C178        C186   1.387       .  A
C179        C191   1.415       .  A
C179        C187   1.386       .  A
C180        C194   1.415       .  A
C180        C188   1.387       .  A
C181        C189   1.387       .  A
C181        C192   1.417       .  A
C182        C190   1.385       .  A
C182        C193   1.416       .  A
C183        C184   1.371       .  A
C183        H195   1.083       .  S
C184        H196   1.082       .  S
C185        C186   1.371       .  A
C185        H197   1.082       .  S
C186        H198   1.082       .  S
C187        C188   1.371       .  A
C187        H199   1.082       .  S
C188        H200   1.082       .  S
C189        C190   1.371       .  A
C189        H201   1.082       .  S
C190        H202   1.083       .  S
C191        C509   1.485       .  S
C192        C543   1.484       .  S
C193        C497   1.489       .  S
C194        C435   1.484       .  S
N205        C210   1.358       .  A
N205        C209   1.359   1_655  A
N205        H237   1.040       .  S
N206        C213   1.354   1_556  A
N206        C214   1.353       .  A
N207        C212   1.357       .  A
N207        C211   1.356   1_655  A
N207        H238   1.040       .  S
N208        C215   1.353   1_556  A
N208        C216   1.355       .  A
C209        C217   1.387       .  A
C209        C225   1.421       .  A
C210        C226   1.420       .  A
C210        C218   1.387       .  A
C211        C219   1.388       .  A
C211        C228   1.418       .  A
C212        C227   1.419       .  A
C212        C220   1.388       .  A
C213        C225   1.414       .  A
C213        C221   1.386       .  A
C214        C228   1.412       .  A
C214        C222   1.387       .  A
C215        C223   1.387       .  A
C215        C226   1.415       .  A
C216        C224   1.386       .  A
C216        C227   1.413       .  A
C217        C218   1.373   1_455  A
C217        H229   1.082       .  S
C218        H230   1.082       .  S
C219        C220   1.371   1_455  A
C219        H231   1.083       .  S
C220        H232   1.082       .  S
C221        C222   1.371   1_554  A
C221        H233   1.083       .  S
C222        H234   1.082       .  S
C223        C224   1.372   1_554  A
C223        H235   1.082       .  S
C224        H236   1.083       .  S
C225        C561   1.487       .  S
C226        C609   1.484       .  S
C227        C647   1.485       .  S
C228        C875   1.480       .  S
N239        C244   1.357       .  A
N239        C243   1.358       .  A
N239        H271   1.040       .  S
N240        C247   1.355       .  A
N240        C248   1.354   1_554  A
N241        C246   1.359       .  A
N241        C245   1.357       .  A
N241        H272   1.040       .  S
N242        C249   1.352   1_566  A
N242        C250   1.354   1_565  A
C243        C251   1.388       .  A
C243        C259   1.421       .  A
C244        C260   1.419   1_565  A
C244        C252   1.388       .  A
C245        C253   1.388       .  A
C245        C262   1.420       .  A
C246        C261   1.422   1_565  A
C246        C254   1.388       .  A
C247        C259   1.414       .  A
C247        C255   1.385       .  A
C248        C262   1.415       .  A
C248        C256   1.387       .  A
C249        C257   1.386       .  A
C249        C260   1.412       .  A
C250        C258   1.386       .  A
C250        C261   1.413       .  A
C251        C252   1.370       .  A
C251        H263   1.082       .  S
C252        H264   1.082       .  S
C253        C254   1.371       .  A
C253        H265   1.082       .  S
C254        H266   1.082       .  S
C255        C256   1.373   1_554  A
C255        H267   1.082       .  S
C256        H268   1.083       .  S
C257        C258   1.372   1_554  A
C257        H269   1.083       .  S
C258        H270   1.082       .  S
C259        C597   1.488       .  S
C260        C573   1.480       .  S
C261        C585   1.488       .  S
C262        C671   1.483       .  S
N273        C278   1.353   1_556  A
N273        C277   1.352       .  A
N273        H305   1.039       .  S
N274        C281   1.355       .  A
N274        C282   1.356   1_455  A
N275        C280   1.353   1_556  A
N275        C279   1.353       .  A
N275        H306   1.035       .  S
N276        C283   1.356       .  A
N276        C284   1.354   1_455  A
C277        C285   1.387       .  A
C277        C293   1.413       .  A
C278        C294   1.413       .  A
C278        C286   1.386       .  A
C279        C287   1.387       .  A
C279        C296   1.417       .  A
C280        C295   1.418       .  A
C280        C288   1.388       .  A
C281        C293   1.418       .  A
C281        C289   1.387       .  A
C282        C296   1.419       .  A
C282        C290   1.387       .  A
C283        C291   1.385       .  A
C283        C294   1.416       .  A
C284        C292   1.389       .  A
C284        C295   1.420       .  A
C285        C286   1.378   1_556  A
C285        H297   1.082       .  S
C286        H298   1.082       .  S
C287        C288   1.376   1_556  A
C287        H299   1.082       .  S
C288        H300   1.083       .  S
C289        C290   1.371   1_455  A
C289        H301   1.082       .  S
C290        H302   1.082       .  S
C291        C292   1.372   1_455  A
C291        H303   1.082       .  S
C292        H304   1.083       .  S
C293        C867   1.479       .  S
C294        C557   1.483       .  S
C295        C603   1.479       .  S
C296        C639   1.483       .  S
N307        C312   1.357       .  A
N307        C311   1.359   1_554  A
N307        H339   1.039   1_545  S
N308        C315   1.356       .  A
N308        C316   1.355       .  A
N309        C314   1.359       .  A
N309        C313   1.358   1_554  A
N309        H340   1.039       .  S
N310        C317   1.353       .  A
N310        C318   1.354       .  A
C311        C319   1.388       .  A
C311        C327   1.421       .  A
C312        C328   1.421       .  A
C312        C320   1.389       .  A
C313        C321   1.389       .  A
C313        C330   1.423       .  A
C314        C329   1.422       .  A
C314        C322   1.387       .  A
C315        C327   1.416   1_565  A
C315        C323   1.386       .  A
C316        C330   1.418       .  A
C316        C324   1.387       .  A
C317        C325   1.386       .  A
C317        C328   1.413   1_565  A
C318        C326   1.386       .  A
C318        C329   1.414       .  A
C319        C320   1.369   1_556  A
C319        H331   1.082       .  S
C320        H332   1.082       .  S
C321        C322   1.370   1_556  A
C321        H333   1.082       .  S
C322        H334   1.083       .  S
C323        C324   1.373       .  A
C323        H335   1.083       .  S
C324        H336   1.082       .  S
C325        C326   1.372       .  A
C325        H337   1.083       .  S
C326        H338   1.083       .  S
C327        C579   1.488       .  S
C328        C569   1.481       .  S
C329        C593   1.487       .  S
C330        C663   1.488       .  S
N341        C346   1.358       .  A
N341        C345   1.360       .  A
N341        H373   1.039       .  S
N342        C349   1.355   1_565  A
N342        C350   1.353   1_665  A
N343        C348   1.358       .  A
N343        C347   1.357       .  A
N343        H374   1.039       .  S
N344        C351   1.354       .  A
N344        C352   1.355   1_655  A
C345        C353   1.387       .  A
C345        C361   1.421   1_565  A
C346        C362   1.422       .  A
C346        C354   1.388       .  A
C347        C355   1.388       .  A
C347        C364   1.420   1_565  A
C348        C363   1.421       .  A
C348        C356   1.388       .  A
C349        C361   1.415       .  A
C349        C357   1.386       .  A
C350        C364   1.414       .  A
C350        C358   1.387       .  A
C351        C359   1.387       .  A
C351        C362   1.415       .  A
C352        C360   1.386       .  A
C352        C363   1.414       .  A
C353        C354   1.372       .  A
C353        H365   1.082       .  S
C354        H366   1.082       .  S
C355        C356   1.371       .  A
C355        H367   1.083       .  S
C356        H368   1.082       .  S
C357        C358   1.372   1_655  A
C357        H369   1.083       .  S
C358        H370   1.083       .  S
C359        C360   1.371   1_655  A
C359        H371   1.083       .  S
C360        H372   1.082       .  S
C361        C621   1.490       .  S
C362        C657   1.485       .  S
C363        C633   1.487       .  S
C364       C1029   1.481       .  S
N375        C380   1.356       .  A
N375        C379   1.357       .  A
N375        H407   1.040       .  S
N376        C383   1.352   1_565  A
N376        C384   1.352   1_465  A
N377        C382   1.357       .  A
N377        C381   1.359       .  A
N377        H408   1.041       .  S
N378        C385   1.354   1_655  A
N378        C386   1.354       .  A
C379        C387   1.387       .  A
C379        C395   1.418   1_565  A
C380        C396   1.418       .  A
C380        C388   1.388       .  A
C381        C389   1.387       .  A
C381        C398   1.420   1_565  A
C382        C397   1.421       .  A
C382        C390   1.388       .  A
C383        C395   1.411       .  A
C383        C391   1.386       .  A
C384        C398   1.411       .  A
C384        C392   1.386       .  A
C385        C393   1.385       .  A
C385        C396   1.413       .  A
C386        C394   1.387       .  A
C386        C397   1.415       .  A
C387        C388   1.372       .  A
C387        H399   1.082       .  S
C388        H400   1.082       .  S
C389        C390   1.374       .  A
C389        H401   1.082       .  S
C390        H402   1.082       .  S
C391        C392   1.372   1_455  A
C391        H403   1.082       .  S
C392        H404   1.082       .  S
C393        C394   1.372   1_455  A
C393        H405   1.083       .  S
C394        H406   1.082       .  S
C395       C1023   1.481       .  S
C396        C629   1.484       .  S
C397        C651   1.485       .  S
C398        C617   1.486       .  S
C409        N410   1.367       .  A
C409        N414   1.358       .  A
C409       C3041   1.485       .  S
N410        C411   1.366       .  A
C411        N412   1.357       .  A
N412        C413   1.354       .  A
C413        N414   1.355       .  A
C413       C3069   1.483       .  S
C415        N416   1.370       .  A
C415        N420   1.362       .  A
C415       C3013   1.502       .  S
N416        C417   1.368       .  A
C417        N418   1.354       .  A
N418        C419   1.351       .  A
C419        N420   1.356       .  A
C419       C3082   1.488       .  S
C421        N422   1.359       .  A
C421        N426   1.367       .  A
C421       C2957   1.499       .  S
N422        C423   1.354       .  A
C423        N424   1.354       .  A
C423       C2985   1.482       .  S
N424        C425   1.357       .  A
C425        N426   1.365       .  A
C427        N428   1.361       .  A
C427        N432   1.369       .  A
C427       C2942   1.491       .  S
N428        C429   1.357       .  A
C429        N430   1.350       .  A
C429       C2998   1.490       .  S
N430        C431   1.352       .  A
C431        N432   1.365       .  A
C433        N434   1.368       .  A
C433        N438   1.359       .  A
C433       C2873   1.489       .  S
N434        C435   1.366       .  A
C435        N436   1.356       .  A
N436        C437   1.352       .  A
C437        N438   1.355       .  A
C437       C2901   1.486       .  S
C439        N440   1.367       .  A
C439        N444   1.359       .  A
C439       C2858   1.501       .  S
N440        C441   1.366       .  A
C441        N442   1.358       .  A
N442        C443   1.355       .  A
C443        N444   1.354       .  A
C443       C2914   1.488       .  S
C445        N446   1.360       .  A
C445        N450   1.368       .  A
C445       C2789   1.500       .  S
N446        C447   1.353       .  A
C447        N448   1.352       .  A
C447       C2817   1.481       .  S
N448        C449   1.355       .  A
C449        N450   1.366       .  A
C451        N452   1.368       .  A
C451        N456   1.357       .  A
C451       C2761   1.486       .  S
N452        C453   1.367       .  A
C453        N454   1.358       .  A
N454        C455   1.353       .  A
C455        N456   1.351       .  A
C455       C2830   1.471       .  S
C457        N458   1.367       .  A
C457        N462   1.357       .  A
C457       C2705   1.485       .  S
N458        C459   1.366       .  A
C459        N460   1.358       .  A
N460        C461   1.355       .  A
C461        N462   1.355       .  A
C461       C2733   1.486       .  S
C463        N464   1.367       .  A
C463        N468   1.359       .  A
C463       C2677   1.488       .  S
N464        C465   1.366       .  A
C465        N466   1.358       .  A
N466        C467   1.355       .  A
C467        N468   1.355       .  A
C467       C2746   1.485       .  S
C469        N470   1.359       .  A
C469        N474   1.368       .  A
C469       C2621   1.493       .  S
N470        C471   1.353       .  A
C471        N472   1.354       .  A
C471       C2662   1.480       .  S
N472        C473   1.358       .  A
C473        N474   1.367       .  A
C475        N476   1.358       .  A
C475        N480   1.366       .  A
C475       C2593   1.488       .  S
N476        C477   1.354       .  A
C477        N478   1.355       .  A
C477       C2649   1.480       .  S
N478        C479   1.359       .  A
C479        N480   1.365       .  A
C481        N482   1.369       .  A
C481        N486   1.360       .  A
C481       C2537   1.504       .  S
N482        C483   1.367       .  A
C483        N484   1.354       .  A
N484        C485   1.350       .  A
C485        N486   1.354       .  A
C485       C2578   1.477       .  S
C487        N488   1.356       .  A
C487        N492   1.367       .  A
C487       C2509   1.489       .  S
N488        C489   1.351       .  A
C489        N490   1.352       .  A
C489       C2565   1.478       .  S
N490        C491   1.358       .  A
C491        N492   1.367       .  A
C493        N494   1.358       .  A
C493        N498   1.368       .  A
C493       C2453   1.490       .  S
N494        C495   1.355       .  A
C495        N496   1.354       .  A
C495       C2481   1.491       .  S
N496        C497   1.358       .  A
C497        N498   1.368       .  A
C499        N500   1.358       .  A
C499        N504   1.368       .  A
C499       C2438   1.496       .  S
N500        C501   1.352       .  A
C501        N502   1.353       .  A
C501       C2494   1.482       .  S
N502        C503   1.357       .  A
C503        N504   1.367       .  A
C505        N506   1.358       .  A
C505        N510   1.368       .  A
C505       C2369   1.494       .  S
N506        C507   1.352       .  A
C507        N508   1.352       .  A
C507       C2397   1.478       .  S
N508        C509   1.356       .  A
C509        N510   1.366       .  A
C511        N512   1.370       .  A
C511        N516   1.356       .  A
C511       C2341   1.490       .  S
N512        C513   1.369       .  A
C513        N514   1.357       .  A
N514        C515   1.351       .  A
C515        N516   1.350       .  A
C515       C2410   1.468       .  S
C517        N518   1.367       .  A
C517        N522   1.356       .  A
C517       C2285   1.491       .  S
N518        C519   1.366       .  A
C519        N520   1.358       .  A
N520        C521   1.354       .  A
C521        N522   1.351       .  A
C521       C2313   1.482       .  S
C523        N524   1.360       .  A
C523        N528   1.370       .  A
C523       C2270   1.503       .  S
N524        C525   1.352       .  A
C525        N526   1.349       .  A
C525       C2326   1.476       .  S
N526        C527   1.354       .  A
C527        N528   1.368       .  A
C529        N530   1.358       .  A
C529        N534   1.366       .  A
C529       C2201   1.482       .  S
N530        C531   1.355       .  A
C531        N532   1.354       .  A
C531       C2229   1.485       .  S
N532        C533   1.357       .  A
C533        N534   1.364       .  A
C535        N536   1.358       .  A
C535        N540   1.369       .  A
C535       C2186   1.495       .  S
N536        C537   1.352       .  A
C537        N538   1.351       .  A
C537       C2242   1.484       .  S
N538        C539   1.356       .  A
C539        N540   1.367       .  A
C541        N542   1.367       .  A
C541        N546   1.361       .  A
C541       C2117   1.490       .  S
N542        C543   1.364       .  A
C543        N544   1.354       .  A
N544        C545   1.353       .  A
C545        N546   1.357       .  A
C545       C2145   1.482       .  S
C547        N548   1.367       .  A
C547        N552   1.358       .  A
C547       C2102   1.493       .  S
N548        C549   1.365       .  A
C549        N550   1.357       .  A
N550        C551   1.353       .  A
C551        N552   1.353       .  A
C551       C2158   1.481       .  S
C553        N554   1.360       .  A
C553        N558   1.366       .  A
C553       C2033   1.494       .  S
N554        C555   1.356       .  A
C555        N556   1.355       .  A
C555       C2074   1.484       .  S
N556        C557   1.357       .  A
C557        N558   1.364       .  A
C559        N560   1.368       .  A
C559        N564   1.357       .  A
C559       C2005   1.483       .  S
N560        C561   1.368       .  A
C561        N562   1.357       .  A
N562        C563   1.353       .  A
C563        N564   1.355       .  A
C563       C2061   1.484       .  S
C565        N566   1.361       .  A
C565        N570   1.366       .  A
C565       C1962   1.499       .  S
N566        C567   1.356       .  A
C567        N568   1.351       .  A
C567       C1977   1.482       .  S
N568        C569   1.354       .  A
C569        N570   1.362       .  A
C571        N572   1.365       .  A
C571        N576   1.355       .  A
C571       C1921   1.483       .  S
N572        C573   1.365       .  A
C573        N574   1.358       .  A
N574        C575   1.353       .  A
C575        N576   1.351       .  A
C575       C1990   1.480       .  S
C577        N578   1.371       .  A
C577        N582   1.357       .  A
C577       C1865   1.492       .  S
N578        C579   1.369       .  A
C579        N580   1.356       .  A
N580        C581   1.351       .  A
C581        N582   1.351       .  A
C581       C1906   1.470       .  S
C583        N584   1.369       .  A
C583        N588   1.358       .  A
C583       C1837   1.494       .  S
N584        C585   1.368       .  A
C585        N586   1.357       .  A
N586        C587   1.352       .  A
C587        N588   1.351       .  A
C587       C1893   1.479       .  S
C589        N590   1.360       .  A
C589        N594   1.369       .  A
C589       C1794   1.493       .  S
N590        C591   1.355       .  A
C591        N592   1.351       .  A
C591       C1809   1.475       .  S
N592        C593   1.355       .  A
C593        N594   1.368       .  A
C595        N596   1.369       .  A
C595        N600   1.359       .  A
C595       C1766   1.499       .  S
N596        C597   1.367       .  A
C597        N598   1.357       .  A
N598        C599   1.352       .  A
C599        N600   1.355       .  A
C599       C1822   1.494       .  S
C601        N602   1.364       .  A
C601        N606   1.359       .  A
C601       C1697   1.481       .  S
N602        C603   1.362       .  A
C603        N604   1.356       .  A
N604        C605   1.353       .  A
C605        N606   1.356       .  A
C605       C1738   1.476       .  S
C607        N608   1.367       .  A
C607        N612   1.359       .  A
C607       C1682   1.497       .  S
N608        C609   1.365       .  A
C609        N610   1.357       .  A
N610        C611   1.353       .  A
C611        N612   1.357       .  A
C611       C1725   1.496       .  S
C613        N614   1.360       .  A
C613        N618   1.367       .  A
C613       C1626   1.498       .  S
N614        C615   1.355       .  A
C615        N616   1.354       .  A
C615       C1654   1.483       .  S
N616        C617   1.357       .  A
C617        N618   1.366       .  A
C619        N620   1.370       .  A
C619        N624   1.360       .  A
C619       C1585   1.501       .  S
N620        C621   1.367       .  A
C621        N622   1.357       .  A
N622        C623   1.353       .  A
C623        N624   1.355       .  A
C623       C1641   1.477       .  S
C625        N626   1.358       .  A
C625        N630   1.366       .  A
C625       C1529   1.483       .  S
N626        C627   1.354       .  A
C627        N628   1.353       .  A
C627       C1557   1.478       .  S
N628        C629   1.357       .  A
C629        N630   1.365       .  A
C631        N632   1.369       .  A
C631        N636   1.359       .  A
C631       C1501   1.499       .  S
N632        C633   1.367       .  A
C633        N634   1.357       .  A
N634        C635   1.352       .  A
C635        N636   1.353       .  A
C635       C1570   1.480       .  S
C637        N638   1.367       .  A
C637        N642   1.360       .  A
C637       C1445   1.490       .  S
N638        C639   1.365       .  A
C639        N640   1.356       .  A
N640        C641   1.353       .  A
C641        N642   1.356       .  A
C641       C1486   1.483       .  S
C643        N644   1.358       .  A
C643        N648   1.368       .  A
C643       C1417   1.499       .  S
N644        C645   1.351       .  A
C645        N646   1.352       .  A
C645       C1473   1.478       .  S
N646        C647   1.357       .  A
C647        N648   1.367       .  A
C649        N650   1.368       .  A
C649        N654   1.357       .  A
C649       C1361   1.491       .  S
N650        C651   1.367       .  A
C651        N652   1.356       .  A
N652        C653   1.351       .  A
C653        N654   1.355       .  A
C653       C1402   1.490       .  S
C655        N656   1.368       .  A
C655        N660   1.359       .  A
C655       C1333   1.488       .  S
N656        C657   1.367       .  A
C657        N658   1.356       .  A
N658        C659   1.351       .  A
C659        N660   1.355       .  A
C659       C1389   1.474       .  S
C661        N662   1.368       .  A
C661        N666   1.358       .  A
C661       C1277   1.487       .  S
N662        C663   1.367       .  A
C663        N664   1.357       .  A
N664        C665   1.353       .  A
C665        N666   1.353       .  A
C665       C1318   1.479       .  S
C667        N668   1.358       .  A
C667        N672   1.367       .  A
C667       C1249   1.495       .  S
N668        C669   1.353       .  A
C669        N670   1.353       .  A
C669       C1305   1.483       .  S
N670        C671   1.356       .  A
C671        N672   1.365       .  A
O673       Mg675   2.121       .  S
O673       Mg681   2.137       .  S
O673        C708   1.239       .  S
C674        H713   1.081       .  S
C674        O687   1.239       .  S
C674        O711   1.274       .  A
Mg675       O704   2.130       .  S
Mg675       O719   2.325       .  S
Mg675       O715   2.263       .  S
Mg675       O686   2.310       .  S
O676       Mg718   2.137       .  S
O676       Mg701   2.133       .  S
O676        C697   1.239       .  S
O677        C708   1.272       .  A
O677       Mg701   2.296       .  S
C678       C2550   1.502       .  S
C678        O680   1.273       .  A
C678        O692   1.280       .  A
O679        C707   1.272       .  A
O679       Mg681   2.300       .  S
O680       Mg712   2.257       .  S
Mg681       O687   2.135       .  S
Mg681       O695   2.276       .  S
Mg681       O683   2.323       .  S
C682       C1290   1.500       .  S
C682        O720   1.276       .  A
C682        O688   1.278       .  A
O683        C690   1.278       .  A
H684        C697   1.081       .  S
C685        H710   1.081       .  S
C685        O699   1.240       .  S
C685        O700   1.274       .  A
O686        C709   1.275       .  A
O687       Mg701   2.135       .  S
O688       Mg718   2.335       .  S
C689       C2382   1.496       .  S
C689        O702   1.274       .  A
C689        O694   1.274       .  A
C690       C1234   1.492       .  S
C690        O717   1.272       .  A
Mg691       O698   2.140       .  S
Mg691       O699   2.129       .  S
Mg691       O692   2.348       .  S
Mg691       O693   2.310       .  S
Mg691       O720   2.276       .  S
O693        C697   1.274       .  A
O694       Mg701   2.299       .  S
O695        C714   1.274       .  A
O696        C716   1.279       .  A
O696       Mg712   2.331       .  S
O698       Mg712   2.128       .  S
O698        C709   1.240       .  S
O699       Mg718   2.135       .  S
O700       Mg712   2.311       .  S
Mg701       O717   2.253       .  S
O702       Mg718   2.275       .  S
H703        C708   1.081       .  S
O704       Mg712   2.128       .  S
O704        C707   1.239       .  S
H705        C707   1.081       .  S
H706        C709   1.081       .  S
O711       Mg718   2.307       .  S
C714       C2929   1.497       .  S
C714        O719   1.279       .  A
O715        C716   1.272       .  A
C716       C1514   1.496       .  S
O721       Mg723   2.124       .  S
O721       Mg729   2.133       .  S
O721        C756   1.239       .  S
C722        H761   1.081       .  S
C722        O735   1.240       .  S
C722        O759   1.274       .  A
Mg723       O752   2.127       .  S
Mg723       O767   2.312       .  S
Mg723       O763   2.256       .  S
Mg723       O734   2.306       .  S
O724       Mg766   2.131       .  S
O724       Mg749   2.140       .  S
O724        C745   1.240       .  S
O725        C756   1.273       .  A
O725       Mg749   2.303       .  S
C726       C1430   1.495       .  S
C726        O728   1.273       .  A
C726        O740   1.277       .  A
O727        C755   1.274       .  A
O727       Mg729   2.309       .  S
O728       Mg760   2.265       .  S
Mg729       O735   2.140       .  S
Mg729       O743   2.286       .  S
Mg729       O731   2.339       .  S
C730       C2970   1.490       .  S
C730        O768   1.273       .  A
C730        O736   1.280       .  A
O731        C738   1.279       .  A
H732        C745   1.081       .  S
C733        H758   1.081       .  S
C733        O747   1.240       .  S
C733        O748   1.274       .  A
O734        C757   1.274       .  A
O735       Mg749   2.132       .  S
O736       Mg766   2.342       .  S
C737       C1346   1.497       .  S
C737        O750   1.274       .  A
C737        O742   1.279       .  A
C738       C3054   1.496       .  S
C738        O765   1.275       .  A
Mg739       O746   2.129       .  S
Mg739       O747   2.130       .  S
Mg739       O740   2.320       .  S
Mg739       O741   2.308       .  S
Mg739       O768   2.265       .  S
O741        C745   1.274       .  A
O742       Mg749   2.331       .  S
O743        C762   1.276       .  A
O744        C764   1.277       .  A
O744       Mg760   2.336       .  S
O746       Mg760   2.131       .  S
O746        C757   1.239       .  S
O747       Mg766   2.136       .  S
O748       Mg760   2.311       .  S
Mg749       O765   2.268       .  S
O750       Mg766   2.277       .  S
H751        C756   1.081       .  S
O752       Mg760   2.136       .  S
O752        C755   1.240       .  S
H753        C755   1.081       .  S
H754        C757   1.081       .  S
O759       Mg766   2.309       .  S
C762       C1262   1.500       .  S
C762        O767   1.275       .  A
O763        C764   1.272       .  A
C764       C2886   1.499       .  S
O769       Mg771   2.129       .  S
O769       Mg777   2.133       .  S
O769        C804   1.239       .  S
C770        H809   1.081       .  S
C770        O783   1.240       .  S
C770        O807   1.275       .  A
Mg771       O800   2.134       .  S
Mg771       O815   2.318       .  S
Mg771       O811   2.260       .  S
Mg771       O782   2.301       .  S
O772       Mg814   2.135       .  S
O772       Mg797   2.139       .  S
O772        C793   1.240       .  S
O773        C804   1.273       .  A
O773       Mg797   2.305       .  S
C774       C1669   1.500       .  S
C774        O776   1.273       .  A
C774        O788   1.279       .  A
O775        C803   1.273       .  A
O775       Mg777   2.304       .  S
O776       Mg808   2.276       .  S
Mg777       O783   2.143       .  S
Mg777       O791   2.283       .  S
Mg777       O779   2.331       .  S
C778       C2845   1.496       .  S
C778        O816   1.272       .  A
C778        O784   1.282       .  A
O779        C786   1.278       .  A
H780        C793   1.081       .  S
C781        H806   1.081       .  S
C781        O795   1.240       .  S
C781        O796   1.274       .  A
O782        C805   1.273       .  A
O783       Mg797   2.133       .  S
O784       Mg814   2.353       .  S
C785       C1753   1.501       .  S
C785        O798   1.276       .  A
C785        O790   1.277       .  A
C786       C2718   1.500       .  S
C786        O813   1.275       .  A
Mg787       O794   2.125       .  S
Mg787       O795   2.129       .  S
Mg787       O788   2.331       .  S
Mg787       O789   2.310       .  S
Mg787       O816   2.253       .  S
O789        C793   1.274       .  A
O790       Mg797   2.323       .  S
O791        C810   1.274       .  A
O792        C812   1.278       .  A
O792       Mg808   2.326       .  S
O794       Mg808   2.132       .  S
O794        C805   1.239       .  S
O795       Mg814   2.139       .  S
O796       Mg808   2.308       .  S
Mg797       O813   2.272       .  S
O798       Mg814   2.287       .  S
H799        C804   1.081       .  S
O800       Mg808   2.133       .  S
O800        C803   1.239       .  S
H801        C803   1.081       .  S
H802        C805   1.081       .  S
O807       Mg814   2.313       .  S
C810       C1374   1.499       .  S
C810        O815   1.277       .  A
O811        C812   1.272       .  A
C812       C2802   1.492       .  S
O817       Mg819   2.136       .  S
O817       Mg825   2.135       .  S
O817        C852   1.240       .  S
C818        H857   1.081       .  S
C818        O831   1.240       .  S
C818        O855   1.275       .  A
Mg819       O848   2.128       .  S
Mg819       O863   2.318       .  S
Mg819       O859   2.276       .  S
Mg819       O830   2.307       .  S
O820       Mg862   2.129       .  S
O820       Mg845   2.143       .  S
O820        C841   1.240       .  S
O821        C852   1.274       .  A
O821       Mg845   2.309       .  S
C822       C1850   1.498       .  S
C822        O824   1.273       .  A
C822        O836   1.277       .  A
O823        C851   1.274       .  A
O823       Mg825   2.305       .  S
O824       Mg856   2.263       .  S
Mg825       O831   2.150       .  S
Mg825       O839   2.298       .  S
Mg825       O827   2.344       .  S
C826       C3026   1.498       .  S
C826        O864   1.273       .  A
C826        O832   1.281       .  A
O827        C834   1.281       .  A
H828        C841   1.081       .  S
C829        H854   1.081       .  S
C829        O843   1.240       .  S
C829        O844   1.274       .  A
O830        C853   1.274       .  A
O831       Mg845   2.134       .  S
O832       Mg862   2.353       .  S
C833       C1598   1.500       .  S
C833        O846   1.275       .  A
C833        O838   1.281       .  A
C834       C2634   1.497       .  S
C834        O861   1.275       .  A
Mg835       O842   2.137       .  S
Mg835       O843   2.125       .  S
Mg835       O836   2.330       .  S
Mg835       O837   2.313       .  S
Mg835       O864   2.270       .  S
O837        C841   1.275       .  A
O838       Mg845   2.354       .  S
O839        C858   1.277       .  A
O840        C860   1.278       .  A
O840       Mg856   2.337       .  S
O842       Mg856   2.131       .  S
O842        C853   1.240       .  S
O843       Mg862   2.133       .  S
O844       Mg856   2.311       .  S
Mg845       O861   2.270       .  S
O846       Mg862   2.269       .  S
H847        C852   1.081       .  S
O848       Mg856   2.128       .  S
O848        C851   1.240       .  S
H849        C851   1.081       .  S
H850        C853   1.081       .  S
O855       Mg862   2.312       .  S
C858       C1458   1.498       .  S
C858        O863   1.277       .  A
O859        C860   1.274       .  A
C860       C2466   1.503       .  S
C865        N866   1.367       .  A
C865        N870   1.359       .  A
C865       C1165   1.487       .  S
N866        C867   1.365       .  A
C867        N868   1.355       .  A
N868        C869   1.352       .  A
C869        N870   1.355       .  A
C869       C1193   1.478       .  S
C871        N872   1.358       .  A
C871        N876   1.364       .  A
C871       C1221   1.488       .  S
N872        C873   1.355       .  A
C873        N874   1.352       .  A
C873       C1206   1.491       .  S
N874        C875   1.356       .  A
C875        N876   1.362       .  A
O877       Mg879   2.136       .  S
O877       Mg885   2.129       .  S
O877        C912   1.239       .  S
C878        H917   1.081       .  S
C878        O891   1.239       .  S
C878        O915   1.273       .  A
Mg879       O908   2.129       .  S
Mg879       O923   2.334       .  S
Mg879       O919   2.267       .  S
Mg879       O890   2.309       .  S
O880       Mg922   2.137       .  S
O880       Mg905   2.127       .  S
O880        C901   1.239       .  S
O881        C912   1.273       .  A
O881       Mg905   2.306       .  S
C882       C2606   1.492       .  S
C882        O884   1.274       .  A
C882        O896   1.276       .  A
O883        C911   1.274       .  A
O883       Mg885   2.309       .  S
O884       Mg916   2.280       .  S
Mg885       O891   2.127       .  S
Mg885       O899   2.244       .  S
Mg885       O887   2.326       .  S
C886       C1178   1.498       .  S
C886        O924   1.273       .  A
C886        O892   1.278       .  A
O887        C894   1.277       .  A
H888        C901   1.081       .  S
C889        H914   1.081       .  S
C889        O903   1.240       .  S
C889        O904   1.274       .  A
O890        C913   1.274       .  A
O891       Mg905   2.130       .  S
O892       Mg922   2.330       .  S
C893       C2130   1.494       .  S
C893        O906   1.275       .  A
C893        O898   1.277       .  A
C894       C1878   1.497       .  S
C894        O921   1.273       .  A
Mg895       O902   2.133       .  S
Mg895       O903   2.134       .  S
Mg895       O896   2.311       .  S
Mg895       O897   2.302       .  S
Mg895       O924   2.260       .  S
O897        C901   1.273       .  A
O898       Mg905   2.311       .  S
O899        C918   1.271       .  A
O900        C920   1.279       .  A
O900       Mg916   2.329       .  S
O902       Mg916   2.133       .  S
O902        C913   1.240       .  S
O903       Mg922   2.138       .  S
O904       Mg916   2.309       .  S
Mg905       O921   2.263       .  S
O906       Mg922   2.282       .  S
H907        C912   1.081       .  S
O908       Mg916   2.131       .  S
O908        C911   1.239       .  S
H909        C911   1.081       .  S
H910        C913   1.081       .  S
O915       Mg922   2.304       .  S
C918       C2522   1.486       .  S
C918        O923   1.278       .  A
O919        C920   1.272       .  A
C920       C1137   1.496       .  S
O925       Mg927   2.136       .  S
O925       Mg933   2.129       .  S
O925        C960   1.239       .  S
C926        H965   1.081       .  S
C926        O939   1.241       .  S
C926        O963   1.275       .  A
Mg927       O956   2.129       .  S
Mg927       O971   2.329       .  S
Mg927       O967   2.274       .  S
Mg927       O938   2.307       .  S
O928       Mg970   2.128       .  S
O928       Mg953   2.131       .  S
O928        C949   1.240       .  S
O929        C960   1.274       .  A
O929       Mg953   2.309       .  S
C930       C2298   1.496       .  S
C930        O932   1.275       .  A
C930        O944   1.277       .  A
O931        C959   1.275       .  A
O931       Mg933   2.312       .  S
O932       Mg964   2.269       .  S
Mg933       O939   2.136       .  S
Mg933       O947   2.267       .  S
Mg933       O935   2.336       .  S
C934       C1542   1.499       .  S
C934        O972   1.274       .  A
C934        O940   1.279       .  A
O935        C942   1.278       .  A
H936        C949   1.081       .  S
C937        H962   1.081       .  S
C937        O951   1.240       .  S
C937        O952   1.274       .  A
O938        C961   1.274       .  A
O939       Mg953   2.130       .  S
O940       Mg970   2.339       .  S
C941       C2774   1.497       .  S
C941        O954   1.274       .  A
C941        O946   1.278       .  A
C942       C2018   1.499       .  S
C942        O969   1.274       .  A
Mg943       O950   2.134       .  S
Mg943       O951   2.129       .  S
Mg943       O944   2.332       .  S
Mg943       O945   2.308       .  S
Mg943       O972   2.262       .  S
O945        C949   1.274       .  A
O946       Mg953   2.328       .  S
O947        C966   1.272       .  A
O948        C968   1.279       .  A
O948       Mg964   2.340       .  S
O950       Mg964   2.131       .  S
O950        C961   1.240       .  S
O951       Mg970   2.138       .  S
O952       Mg964   2.308       .  S
Mg953       O969   2.270       .  S
O954       Mg970   2.276       .  S
H955        C960   1.081       .  S
O956       Mg964   2.135       .  S
O956        C959   1.240       .  S
H957        C959   1.081       .  S
H958        C961   1.081       .  S
O963       Mg970   2.311       .  S
C966       C2354   1.497       .  S
C966        O971   1.279       .  A
O967        C968   1.275       .  A
C968       C1781   1.503       .  S
O973       Mg975   2.121       .  S
O973       Mg981   2.125       .  S
O973       C1008   1.239       .  S
C974       H1013   1.081       .  S
C974        O987   1.241       .  S
C974       O1011   1.275       .  A
Mg975      O1004   2.127       .  S
Mg975      O1019   2.343       .  S
Mg975      O1015   2.263       .  S
Mg975       O986   2.315       .  S
O976      Mg1018   2.131       .  S
O976      Mg1001   2.128       .  S
O976        C997   1.239       .  S
O977       C1008   1.273       .  A
O977      Mg1001   2.301       .  S
C978       C1934   1.496       .  S
C978        O980   1.271       .  A
C978        O992   1.277       .  A
O979       C1007   1.275       .  A
O979       Mg981   2.311       .  S
O980      Mg1012   2.261       .  S
Mg981       O987   2.134       .  S
Mg981       O995   2.267       .  S
Mg981       O983   2.331       .  S
C982       C2425   1.493       .  S
C982       O1020   1.272       .  A
C982        O988   1.280       .  A
O983        C990   1.278       .  A
H984        C997   1.081       .  S
C985       H1010   1.081       .  S
C985        O999   1.240       .  S
C985       O1000   1.275       .  A
O986       C1009   1.275       .  A
O987      Mg1001   2.132       .  S
O988      Mg1018   2.339       .  S
C989       C1710   1.490       .  S
C989       O1002   1.275       .  A
C989        O994   1.276       .  A
C990       C2214   1.495       .  S
C990       O1017   1.273       .  A
Mg991       O998   2.136       .  S
Mg991       O999   2.130       .  S
Mg991       O992   2.325       .  S
Mg991       O993   2.304       .  S
Mg991      O1020   2.264       .  S
O993        C997   1.273       .  A
O994      Mg1001   2.306       .  S
O995       C1014   1.274       .  A
O996       C1016   1.277       .  A
O996      Mg1012   2.329       .  S
O998      Mg1012   2.124       .  S
O998       C1009   1.240       .  S
O999      Mg1018   2.138       .  S
O1000     Mg1012   2.313       .  S
Mg1001     O1017   2.262       .  S
O1002     Mg1018   2.281       .  S
H1003      C1008   1.081       .  S
O1004     Mg1012   2.139       .  S
O1004      C1007   1.240       .  S
H1005      C1007   1.081       .  S
H1006      C1009   1.081       .  S
O1011     Mg1018   2.308       .  S
C1014      C1613   1.502       .  S
C1014      O1019   1.279       .  A
O1015      C1016   1.273       .  A
C1016      C2690   1.498       .  S
C1021      N1022   1.367       .  A
C1021      N1026   1.358       .  A
C1021      C1081   1.499       .  S
N1022      C1023   1.365       .  A
C1023      N1024   1.357       .  A
N1024      C1025   1.352       .  A
C1025      N1026   1.352       .  A
C1025      C1122   1.479       .  S
C1027      N1028   1.366       .  A
C1027      N1032   1.361       .  A
C1027      C1150   1.502       .  S
N1028      C1029   1.363       .  A
C1029      N1030   1.354       .  A
N1030      C1031   1.352       .  A
C1031      N1032   1.356       .  A
C1031      C1109   1.484       .  S
O1033     Mg1035   2.132       .  S
O1033     Mg1041   2.134       .  S
O1033      C1068   1.239       .  S
C1034      H1073   1.081       .  S
C1034      O1047   1.239       .  S
C1034      O1071   1.273       .  A
Mg1035     O1064   2.132       .  S
Mg1035     O1079   2.306       .  S
Mg1035     O1075   2.258       .  S
Mg1035     O1046   2.302       .  S
O1036     Mg1078   2.138       .  S
O1036     Mg1061   2.136       .  S
O1036      C1057   1.240       .  S
O1037      C1068   1.273       .  A
O1037     Mg1061   2.306       .  S
C1038      C2257   1.493       .  S
C1038      O1040   1.274       .  A
C1038      O1052   1.275       .  A
O1039      C1067   1.274       .  A
O1039     Mg1041   2.309       .  S
O1040     Mg1072   2.272       .  S
Mg1041     O1047   2.127       .  S
Mg1041     O1055   2.278       .  S
Mg1041     O1043   2.345       .  S
C1042      C1949   1.486       .  S
C1042      O1080   1.271       .  A
C1042      O1048   1.277       .  A
O1043      C1050   1.281       .  A
H1044      C1057   1.081       .  S
C1045      H1070   1.081       .  S
C1045      O1059   1.238       .  S
C1045      O1060   1.272       .  A
O1046      C1069   1.273       .  A
O1047     Mg1061   2.128       .  S
O1048     Mg1078   2.318       .  S
C1049      C2089   1.493       .  S
C1049      O1062   1.273       .  A
C1049      O1054   1.276       .  A
C1050      C2046   1.489       .  S
C1050      O1077   1.273       .  A
Mg1051     O1058   2.126       .  S
Mg1051     O1059   2.131       .  S
Mg1051     O1052   2.308       .  S
Mg1051     O1053   2.306       .  S
Mg1051     O1080   2.259       .  S
O1053      C1057   1.274       .  A
O1054     Mg1061   2.315       .  S
O1055      C1074   1.275       .  A
O1056      C1076   1.277       .  A
O1056     Mg1072   2.323       .  S
O1058     Mg1072   2.138       .  S
O1058      C1069   1.240       .  S
O1059     Mg1078   2.126       .  S
O1060     Mg1072   2.302       .  S
Mg1061     O1077   2.269       .  S
O1062     Mg1078   2.260       .  S
H1063      C1068   1.081       .  S
O1064     Mg1072   2.134       .  S
O1064      C1067   1.240       .  S
H1065      C1067   1.081       .  S
H1066      C1069   1.081       .  S
O1071     Mg1078   2.303       .  S
C1074      C2173   1.497       .  S
C1074      O1079   1.275       .  A
O1075      C1076   1.272       .  A
C1076      C1094   1.492       .  S
C1081      C1082   1.419       .  A
C1081      C1086   1.413       .  A
C1082      C1083   1.413       .  A
C1082      N1087   1.437       .  S
C1083      C1084   1.403       .  A
C1083      H1088   1.084       .  S
C1084      C1085   1.403       .  A
C1084      C1089   1.482       .  S
C1085      C1086   1.401       .  A
C1085      N1090   1.439       .  S
C1086      H1091   1.082       .  S
N1087      H1107   1.046       .  S
N1087      H1108   1.046       .  S
C1089      C1092   1.399       .  A
C1089      C1096   1.407       .  A
N1090      H1105   1.046       .  S
N1090      H1106   1.046       .  S
C1092      C1093   1.405       .  A
C1092      H1097   1.084       .  S
C1093      C1094   1.418       .  A
C1093      N1098   1.438       .  S
C1094      C1095   1.410       .  A
C1095      C1096   1.408       .  A
C1095      H1099   1.083       .  S
C1096      N1100   1.437       .  S
N1098      H1101   1.046       .  S
N1098      H1102   1.046       .  S
N1100      H1103   1.046       .  S
N1100      H1104   1.046       .  S
C1109      C1110   1.417       .  A
C1109      C1114   1.406       .  A
C1110      C1111   1.405       .  A
C1110      N1115   1.438       .  S
C1111      C1112   1.400       .  A
C1111      H1116   1.083       .  S
C1112      C1113   1.407       .  A
C1112      C1117   1.478       .  S
C1113      C1114   1.403       .  A
C1113      N1118   1.438       .  S
C1114      H1119   1.083       .  S
N1115      H1135   1.046       .  S
N1115      H1136   1.045       .  S
C1117      C1120   1.400       .  A
C1117      C1124   1.408       .  A
N1118      H1133   1.046       .  S
N1118      H1134   1.046       .  S
C1120      C1121   1.402       .  A
C1120      H1125   1.084       .  S
C1121      C1122   1.414       .  A
C1121      N1126   1.438       .  S
C1122      C1123   1.406       .  A
C1123      C1124   1.405       .  A
C1123      H1127   1.084       .  S
C1124      N1128   1.438   1_545  S
N1126      H1129   1.046       .  S
N1126      H1130   1.046       .  S
N1128      H1131   1.045       .  S
N1128      H1132   1.046       .  S
C1137      C1138   1.421       .  A
C1137      C1142   1.410       .  A
C1138      C1139   1.408       .  A
C1138      N1143   1.438       .  S
C1139      C1140   1.400       .  A
C1139      H1144   1.084       .  S
C1140      C1141   1.406       .  A
C1140      C1145   1.482       .  S
C1141      C1142   1.407       .  A
C1141      N1146   1.438       .  S
C1142      H1147   1.083       .  S
N1143      H1163   1.045       .  S
N1143      H1164   1.046       .  S
C1145      C1148   1.402       .  A
C1145      C1152   1.411       .  A
N1146      H1161   1.046       .  S
N1146      H1162   1.046       .  S
C1148      C1149   1.404       .  A
C1148      H1153   1.084       .  S
C1149      C1150   1.422       .  A
C1149      N1154   1.432       .  S
C1150      C1151   1.413       .  A
C1151      C1152   1.400       .  A
C1151      H1155   1.083       .  S
C1152      N1156   1.440       .  S
N1154      H1157   1.045       .  S
N1154      H1158   1.045       .  S
N1156      H1159   1.046       .  S
N1156      H1160   1.043       .  S
C1165      C1166   1.416       .  A
C1165      C1170   1.405       .  A
C1166      C1167   1.404       .  A
C1166      N1171   1.437       .  S
C1167      C1168   1.400       .  A
C1167      H1172   1.084       .  S
C1168      C1169   1.412       .  A
C1168      C1173   1.489       .  S
C1169      C1170   1.411       .  A
C1169      N1174   1.437       .  S
C1170      H1175   1.083       .  S
N1171      H1191   1.046       .  S
N1171      H1192   1.046       .  S
C1173      C1176   1.402       .  A
C1173      C1180   1.408       .  A
N1174      H1189   1.046       .  S
N1174      H1190   1.046       .  S
C1176      C1177   1.410       .  A
C1176      H1181   1.084       .  S
C1177      C1178   1.420       .  A
C1177      N1182   1.438       .  S
C1178      C1179   1.411       .  A
C1179      C1180   1.405       .  A
C1179      H1183   1.083       .  S
C1180      N1184   1.438       .  S
N1182      H1185   1.046       .  S
N1182      H1186   1.045       .  S
N1184      H1187   1.046       .  S
N1184      H1188   1.046       .  S
C1193      C1194   1.408       .  A
C1193      C1198   1.405       .  A
C1194      C1195   1.398       .  A
C1194      N1199   1.431       .  S
C1195      C1196   1.402       .  A
C1195      H1200   1.084       .  S
C1196      C1197   1.418       .  A
C1196      C1201   1.479       .  S
C1197      C1198   1.403       .  A
C1197      N1202   1.440       .  S
C1198      H1203   1.084       .  S
N1199      H1219   1.046       .  S
N1199      H1220   1.046       .  S
C1201      C1204   1.400       .  A
C1201      C1208   1.406       .  A
N1202      H1217   1.046       .  S
N1202      H1218   1.042       .  S
C1204      C1205   1.406       .  A
C1204      H1209   1.084       .  S
C1205      C1206   1.421       .  A
C1205      N1210   1.438       .  S
C1206      C1207   1.409       .  A
C1207      C1208   1.401       .  A
C1207      H1211   1.083       .  S
C1208      N1212   1.438       .  S
N1210      H1213   1.046       .  S
N1210      H1214   1.045       .  S
N1212      H1215   1.046       .  S
N1212      H1216   1.045       .  S
C1221      C1222   1.414       .  A
C1221      C1226   1.407       .  A
C1222      C1223   1.411       .  A
C1222      N1227   1.437       .  S
C1223      C1224   1.406       .  A
C1223      H1228   1.084       .  S
C1224      C1225   1.409       .  A
C1224      C1229   1.488       .  S
C1225      C1226   1.401       .  A
C1225      N1230   1.438       .  S
C1226      H1231   1.084       .  S
N1227      H1247   1.045       .  S
N1227      H1248   1.046       .  S
C1229      C1232   1.402       .  A
C1229      C1236   1.410       .  A
N1230      H1245   1.046       .  S
N1230      H1246   1.046       .  S
C1232      C1233   1.404       .  A
C1232      H1237   1.084       .  S
C1233      C1234   1.418       .  A
C1233      N1238   1.438       .  S
C1234      C1235   1.408       .  A
C1235      C1236   1.408       .  A
C1235      H1239   1.083       .  S
C1236      N1240   1.438       .  S
N1238      H1241   1.046       .  S
N1238      H1242   1.046       .  S
N1240      H1243   1.046       .  S
N1240      H1244   1.046       .  S
C1249      C1250   1.416       .  A
C1249      C1254   1.410       .  A
C1250      C1251   1.413       .  A
C1250      N1255   1.437       .  S
C1251      C1252   1.407       .  A
C1251      H1256   1.083       .  S
C1252      C1253   1.408       .  A
C1252      C1257   1.493       .  S
C1253      C1254   1.402       .  A
C1253      N1258   1.439       .  S
C1254      H1259   1.083       .  S
N1255      H1275   1.045       .  S
N1255      H1276   1.046       .  S
C1257      C1260   1.403       .  A
C1257      C1264   1.410       .  A
N1258      H1273   1.046       .  S
N1258      H1274   1.046       .  S
C1260      C1261   1.408       .  A
C1260      H1265   1.084       .  S
C1261      C1262   1.421       .  A
C1261      N1266   1.438       .  S
C1262      C1263   1.410       .  A
C1263      C1264   1.409       .  A
C1263      H1267   1.083       .  S
C1264      N1268   1.438       .  S
N1266      H1269   1.046       .  S
N1266      H1270   1.046       .  S
N1268      H1271   1.046       .  S
N1268      H1272   1.046       .  S
C1277      C1278   1.414       .  A
C1277      C1282   1.404       .  A
C1278      C1279   1.404       .  A
C1278      N1283   1.438       .  S
C1279      C1280   1.401       .  A
C1279      H1284   1.084       .  S
C1280      C1281   1.420       .  A
C1280      C1285   1.490       .  S
C1281      C1282   1.410       .  A
C1281      N1286   1.438       .  S
C1282      H1287   1.084       .  S
N1283      H1303   1.046       .  S
N1283      H1304   1.046       .  S
C1285      C1288   1.403       .  A
C1285      C1292   1.407       .  A
N1286      H1301   1.046       .  S
N1286      H1302   1.043       .  S
C1288      C1289   1.412       .  A
C1288      H1293   1.084       .  S
C1289      C1290   1.420       .  A
C1289      N1294   1.438       .  S
C1290      C1291   1.410       .  A
C1291      C1292   1.407       .  A
C1291      H1295   1.083       .  S
C1292      N1296   1.438       .  S
N1294      H1297   1.046       .  S
N1294      H1298   1.046       .  S
N1296      H1299   1.046       .  S
N1296      H1300   1.046       .  S
C1305      C1306   1.416       .  A
C1305      C1310   1.407       .  A
C1306      C1307   1.404       .  A
C1306      N1311   1.438       .  S
C1307      C1308   1.401       .  A
C1307      H1312   1.084       .  S
C1308      C1309   1.407       .  A
C1308      C1313   1.477       .  S
C1309      C1310   1.403       .  A
C1309      N1314   1.438       .  S
C1310      H1315   1.084       .  S
N1311      H1331   1.046       .  S
N1311      H1332   1.046       .  S
C1313      C1316   1.401       .  A
C1313      C1320   1.407       .  A
N1314      H1329   1.046       .  S
N1314      H1330   1.046       .  S
C1316      C1317   1.404       .  A
C1316      H1321   1.084       .  S
C1317      C1318   1.414       .  A
C1317      N1322   1.437       .  S
C1318      C1319   1.406       .  A
C1319      C1320   1.404       .  A
C1319      H1323   1.084       .  S
C1320      N1324   1.438       .  S
N1322      H1325   1.046       .  S
N1322      H1326   1.046       .  S
N1324      H1327   1.046       .  S
N1324      H1328   1.046       .  S
C1333      C1334   1.413       .  A
C1333      C1338   1.405       .  A
C1334      C1335   1.404       .  A
C1334      N1339   1.432       .  S
C1335      C1336   1.401       .  A
C1335      H1340   1.084       .  S
C1336      C1337   1.414       .  A
C1336      C1341   1.492       .  S
C1337      C1338   1.413       .  A
C1337      N1342   1.437       .  S
C1338      H1343   1.083       .  S
N1339      H1359   1.045       .  S
N1339      H1360   1.046       .  S
C1341      C1344   1.403       .  A
C1341      C1348   1.410       .  A
N1342      H1357   1.046       .  S
N1342      H1358   1.046       .  S
C1344      C1345   1.410       .  A
C1344      H1349   1.084       .  S
C1345      C1346   1.418       .  A
C1345      N1350   1.438       .  S
C1346      C1347   1.409       .  A
C1347      C1348   1.409       .  A
C1347      H1351   1.083       .  S
C1348      N1352   1.438       .  S
N1350      H1353   1.046       .  S
N1350      H1354   1.046       .  S
N1352      H1355   1.046       .  S
N1352      H1356   1.046       .  S
C1361      C1362   1.416       .  A
C1361      C1366   1.405       .  A
C1362      C1363   1.402       .  A
C1362      N1367   1.433       .  S
C1363      C1364   1.401       .  A
C1363      H1368   1.084       .  S
C1364      C1365   1.415       .  A
C1364      C1369   1.494       .  S
C1365      C1366   1.413       .  A
C1365      N1370   1.437       .  S
C1366      H1371   1.083       .  S
N1367      H1387   1.046       .  S
N1367      H1388   1.046       .  S
C1369      C1372   1.403       .  A
C1369      C1376   1.411       .  A
N1370      H1385   1.045       .  S
N1370      H1386   1.046       .  S
C1372      C1373   1.410       .  A
C1372      H1377   1.084       .  S
C1373      C1374   1.419       .  A
C1373      N1378   1.438       .  S
C1374      C1375   1.410       .  A
C1375      C1376   1.407       .  A
C1375      H1379   1.083       .  S
C1376      N1380   1.438       .  S
N1378      H1381   1.046       .  S
N1378      H1382   1.045       .  S
N1380      H1383   1.046       .  S
N1380      H1384   1.046       .  S
C1389      C1390   1.407       .  A
C1389      C1394   1.405       .  A
C1390      C1391   1.398       .  A
C1390      N1395   1.432       .  S
C1391      C1392   1.401       .  A
C1391      H1396   1.084       .  S
C1392      C1393   1.416       .  A
C1392      C1397   1.476       .  S
C1393      C1394   1.403       .  A
C1393      N1398   1.439       .  S
C1394      H1399   1.084       .  S
N1395      H1415   1.045       .  S
N1395      H1416   1.046       .  S
C1397      C1400   1.400       .  A
C1397      C1404   1.405       .  A
N1398      H1413   1.046       .  S
N1398      H1414   1.043       .  S
C1400      C1401   1.406       .  A
C1400      H1405   1.084       .  S
C1401      C1402   1.421       .  A
C1401      N1406   1.438       .  S
C1402      C1403   1.408       .  A
C1403      C1404   1.401       .  A
C1403      H1407   1.083       .  S
C1404      N1408   1.438       .  S
N1406      H1409   1.046       .  S
N1406      H1410   1.046       .  S
N1408      H1411   1.046       .  S
N1408      H1412   1.046       .  S
C1417      C1418   1.420       .  A
C1417      C1422   1.412       .  A
C1418      C1419   1.406       .  A
C1418      N1423   1.431       .  S
C1419      C1420   1.405       .  A
C1419      H1424   1.084       .  S
C1420      C1421   1.411       .  A
C1420      C1425   1.482       .  S
C1421      C1422   1.398       .  A
C1421      N1426   1.440       .  S
C1422      H1427   1.083       .  S
N1423      H1443   1.045       .  S
N1423      H1444   1.045       .  S
C1425      C1428   1.400       .  A
C1425      C1432   1.406       .  A
N1426      H1441   1.046       .  S
N1426      H1442   1.043       .  S
C1428      C1429   1.408       .  A
C1428      H1433   1.084       .  S
C1429      C1430   1.420       .  A
C1429      N1434   1.438       .  S
C1430      C1431   1.410       .  A
C1431      C1432   1.407       .  A
C1431      H1435   1.083       .  S
C1432      N1436   1.438       .  S
N1434      H1437   1.046       .  S
N1434      H1438   1.046       .  S
N1436      H1439   1.046       .  S
N1436      H1440   1.046       .  S
C1445      C1446   1.414       .  A
C1445      C1450   1.405       .  A
C1446      C1447   1.404       .  A
C1446      N1451   1.433       .  S
C1447      C1448   1.402       .  A
C1447      H1452   1.084       .  S
C1448      C1449   1.414       .  A
C1448      C1453   1.494       .  S
C1449      C1450   1.412       .  A
C1449      N1454   1.437       .  S
C1450      H1455   1.083       .  S
N1451      H1471   1.046       .  S
N1451      H1472   1.046       .  S
C1453      C1456   1.404       .  A
C1453      C1460   1.411       .  A
N1454      H1469   1.046       .  S
N1454      H1470   1.046       .  S
C1456      C1457   1.408       .  A
C1456      H1461   1.084       .  S
C1457      C1458   1.414       .  A
C1457      N1462   1.432       .  S
C1458      C1459   1.410       .  A
C1459      C1460   1.410       .  A
C1459      H1463   1.083       .  S
C1460      N1464   1.438       .  S
N1462      H1465   1.046       .  S
N1462      H1466   1.046       .  S
N1464      H1467   1.046       .  S
N1464      H1468   1.046       .  S
C1473      C1474   1.415       .  A
C1473      C1478   1.405       .  A
C1474      C1475   1.404       .  A
C1474      N1479   1.438       .  S
C1475      C1476   1.400       .  A
C1475      H1480   1.084       .  S
C1476      C1477   1.406       .  A
C1476      C1481   1.477       .  S
C1477      C1478   1.404       .  A
C1477      N1482   1.436       .  S
C1478      H1483   1.084       .  S
N1479      H1499   1.046       .  S
N1479      H1500   1.046       .  S
C1481      C1484   1.400       .  A
C1481      C1488   1.406       .  A
N1482      H1497   1.044       .  S
N1482      H1498   1.045       .  S
C1484      C1485   1.405       .  A
C1484      H1489   1.084       .  S
C1485      C1486   1.417       .  A
C1485      N1490   1.438       .  S
C1486      C1487   1.406       .  A
C1487      C1488   1.404       .  A
C1487      H1491   1.083       .  S
C1488      N1492   1.438       .  S
N1490      H1493   1.046       .  S
N1490      H1494   1.046       .  S
N1492      H1495   1.046       .  S
N1492      H1496   1.046       .  S
C1501      C1502   1.417       .  A
C1501      C1506   1.411       .  A
C1502      C1503   1.414       .  A
C1502      N1507   1.437       .  S
C1503      C1504   1.406       .  A
C1503      H1508   1.083       .  S
C1504      C1505   1.407       .  A
C1504      C1509   1.491       .  S
C1505      C1506   1.403       .  A
C1505      N1510   1.439       .  S
C1506      H1511   1.083       .  S
N1507      H1527   1.046       .  S
N1507      H1528   1.046       .  S
C1509      C1512   1.403       .  A
C1509      C1516   1.409       .  A
N1510      H1525   1.046       .  S
N1510      H1526   1.046       .  S
C1512      C1513   1.408       .  A
C1512      H1517   1.084       .  S
C1513      C1514   1.419       .  A
C1513      N1518   1.438       .  S
C1514      C1515   1.409       .  A
C1515      C1516   1.409       .  A
C1515      H1519   1.083       .  S
C1516      N1520   1.438       .  S
N1518      H1521   1.046       .  S
N1518      H1522   1.046       .  S
N1520      H1523   1.046       .  S
N1520      H1524   1.046       .  S
C1529      C1530   1.411       .  A
C1529      C1534   1.405       .  A
C1530      C1531   1.400       .  A
C1530      N1535   1.433       .  S
C1531      C1532   1.401       .  A
C1531      H1536   1.084       .  S
C1532      C1533   1.414       .  A
C1532      C1537   1.490       .  S
C1533      C1534   1.413       .  A
C1533      N1538   1.437       .  S
C1534      H1539   1.084       .  S
N1535      H1555   1.046       .  S
N1535      H1556   1.046       .  S
C1537      C1540   1.404       .  A
C1537      C1544   1.408       .  A
N1538      H1553   1.046       .  S
N1538      H1554   1.046       .  S
C1540      C1541   1.412       .  A
C1540      H1545   1.084       .  S
C1541      C1542   1.419       .  A
C1541      N1546   1.438       .  S
C1542      C1543   1.410       .  A
C1543      C1544   1.405       .  A
C1543      H1547   1.083       .  S
C1544      N1548   1.438       .  S
N1546      H1549   1.046       .  S
N1546      H1550   1.046       .  S
N1548      H1551   1.046       .  S
N1548      H1552   1.046       .  S
C1557      C1558   1.413       .  A
C1557      C1562   1.404       .  A
C1558      C1559   1.405       .  A
C1558      N1563   1.438       .  S
C1559      C1560   1.401       .  A
C1559      H1564   1.084       .  S
C1560      C1561   1.410       .  A
C1560      C1565   1.480       .  S
C1561      C1562   1.405       .  A
C1561      N1566   1.438       .  S
C1562      H1567   1.084       .  S
N1563      H1583   1.046       .  S
N1563      H1584   1.045       .  S
C1565      C1568   1.403       .  A
C1565      C1572   1.416       .  A
N1566      H1581   1.046       .  S
N1566      H1582   1.044       .  S
C1568      C1569   1.406       .  A
C1568      H1573   1.084       .  S
C1569      C1570   1.413       .  A
C1569      N1574   1.438       .  S
C1570      C1571   1.404       .  A
C1571      C1572   1.399       .  A
C1571      H1575   1.084       .  S
C1572      N1576   1.439       .  S
N1574      H1577   1.045       .  S
N1574      H1578   1.046       .  S
N1576      H1579   1.045       .  S
N1576      H1580   1.043       .  S
C1585      C1586   1.419       .  A
C1585      C1590   1.411       .  A
C1586      C1587   1.407       .  A
C1586      N1591   1.432       .  S
C1587      C1588   1.406       .  A
C1587      H1592   1.084       .  S
C1588      C1589   1.415       .  A
C1588      C1593   1.493       .  S
C1589      C1590   1.404       .  A
C1589      N1594   1.439       .  S
C1590      H1595   1.084       .  S
N1591      H1611   1.045       .  S
N1591      H1612   1.045       .  S
C1593      C1596   1.406       .  A
C1593      C1600   1.406       .  A
N1594      H1609   1.046       .  S
N1594      H1610   1.043       .  S
C1596      C1597   1.415       .  A
C1596      H1601   1.084       .  S
C1597      C1598   1.418       .  A
C1597      N1602   1.437       .  S
C1598      C1599   1.411       .  A
C1599      C1600   1.408       .  A
C1599      H1603   1.083       .  S
C1600      N1604   1.438       .  S
N1602      H1605   1.046       .  S
N1602      H1606   1.045       .  S
N1604      H1607   1.046       .  S
N1604      H1608   1.046       .  S
C1613      C1614   1.420       .  A
C1613      C1618   1.412       .  A
C1614      C1615   1.411       .  A
C1614      N1619   1.438       .  S
C1615      C1616   1.403       .  A
C1615      H1620   1.084       .  S
C1616      C1617   1.406       .  A
C1616      C1621   1.490       .  S
C1617      C1618   1.408       .  A
C1617      N1622   1.438       .  S
C1618      H1623   1.083       .  S
N1619      H1639   1.046       .  S
N1619      H1640   1.046       .  S
C1621      C1624   1.405       .  A
C1621      C1628   1.406       .  A
N1622      H1637   1.046       .  S
N1622      H1638   1.046       .  S
C1624      C1625   1.414       .  A
C1624      H1629   1.084       .  S
C1625      C1626   1.417       .  A
C1625      N1630   1.437       .  S
C1626      C1627   1.411       .  A
C1627      C1628   1.404       .  A
C1627      H1631   1.083       .  S
C1628      N1632   1.438       .  S
N1630      H1633   1.046       .  S
N1630      H1634   1.045       .  S
N1632      H1635   1.046       .  S
N1632      H1636   1.046       .  S
C1641      C1642   1.412       .  A
C1641      C1646   1.405       .  A
C1642      C1643   1.405       .  A
C1642      N1647   1.438       .  S
C1643      C1644   1.401       .  A
C1643      H1648   1.084       .  S
C1644      C1645   1.407       .  A
C1644      C1649   1.477       .  S
C1645      C1646   1.407       .  A
C1645      N1650   1.437       .  S
C1646      H1651   1.084       .  S
N1647      H1667   1.046       .  S
N1647      H1668   1.046       .  S
C1649      C1652   1.400       .  A
C1649      C1656   1.407       .  A
N1650      H1665   1.045       .  S
N1650      H1666   1.045       .  S
C1652      C1653   1.406       .  A
C1652      H1657   1.084       .  S
C1653      C1654   1.415       .  A
C1653      N1658   1.438       .  S
C1654      C1655   1.406       .  A
C1655      C1656   1.405       .  A
C1655      H1659   1.084       .  S
C1656      N1660   1.438   1_545  S
N1658      H1661   1.046       .  S
N1658      H1662   1.046       .  S
N1660      H1663   1.046       .  S
N1660      H1664   1.046       .  S
C1669      C1670   1.420       .  A
C1669      C1674   1.408       .  A
C1670      C1671   1.411       .  A
C1670      N1675   1.438       .  S
C1671      C1672   1.404       .  A
C1671      H1676   1.083       .  S
C1672      C1673   1.413       .  A
C1672      C1677   1.497       .  S
C1673      C1674   1.408       .  A
C1673      N1678   1.438       .  S
C1674      H1679   1.083       .  S
N1675      H1695   1.046       .  S
N1675      H1696   1.046       .  S
C1677      C1680   1.401       .  A
C1677      C1684   1.415       .  A
N1678      H1693   1.046       .  S
N1678      H1694   1.046       .  S
C1680      C1681   1.405       .  A
C1680      H1685   1.084       .  S
C1681      C1682   1.419       .  A
C1681      N1686   1.438       .  S
C1682      C1683   1.407       .  A
C1683      C1684   1.414       .  A
C1683      H1687   1.083       .  S
C1684      N1688   1.437       .  S
N1686      H1689   1.046       .  S
N1686      H1690   1.046       .  S
N1688      H1691   1.046       .  S
N1688      H1692   1.046       .  S
C1697      C1698   1.413       .  A
C1697      C1702   1.403       .  A
C1698      C1699   1.406       .  A
C1698      N1703   1.437       .  S
C1699      C1700   1.402       .  A
C1699      H1704   1.084       .  S
C1700      C1701   1.411       .  A
C1700      C1705   1.486       .  S
C1701      C1702   1.408       .  A
C1701      N1706   1.437       .  S
C1702      H1707   1.084       .  S
N1703      H1723   1.046       .  S
N1703      H1724   1.046       .  S
C1705      C1708   1.404       .  A
C1705      C1712   1.408       .  A
N1706      H1721   1.046       .  S
N1706      H1722   1.046       .  S
C1708      C1709   1.409       .  A
C1708      H1713   1.084       .  S
C1709      C1710   1.415       .  A
C1709      N1714   1.437       .  S
C1710      C1711   1.408       .  A
C1711      C1712   1.406       .  A
C1711      H1715   1.083       .  S
C1712      N1716   1.438       .  S
N1714      H1717   1.046       .  S
N1714      H1718   1.046       .  S
N1716      H1719   1.046       .  S
N1716      H1720   1.046       .  S
C1725      C1726   1.421       .  A
C1725      C1730   1.408       .  A
C1726      C1727   1.409       .  A
C1726      N1731   1.438       .  S
C1727      C1728   1.402       .  A
C1727      H1732   1.083       .  S
C1728      C1729   1.409       .  A
C1728      C1733   1.487       .  S
C1729      C1730   1.403       .  A
C1729      N1734   1.438       .  S
C1730      H1735   1.083       .  S
N1731      H1751   1.046       .  S
N1731      H1752   1.045       .  S
C1733      C1736   1.403       .  A
C1733      C1740   1.411       .  A
N1734      H1749   1.046       .  S
N1734      H1750   1.046       .  S
C1736      C1737   1.402       .  A
C1736      H1741   1.084       .  S
C1737      C1738   1.410       .  A
C1737      N1742   1.437       .  S
C1738      C1739   1.405       .  A
C1739      C1740   1.408       .  A
C1739      H1743   1.084       .  S
C1740      N1744   1.436       .  S
N1742      H1745   1.046       .  S
N1742      H1746   1.044       .  S
N1744      H1747   1.046       .  S
N1744      H1748   1.045       .  S
C1753      C1754   1.421       .  A
C1753      C1758   1.410       .  A
C1754      C1755   1.409       .  A
C1754      N1759   1.438       .  S
C1755      C1756   1.402       .  A
C1755      H1760   1.084       .  S
C1756      C1757   1.409       .  A
C1756      C1761   1.493       .  S
C1757      C1758   1.411       .  A
C1757      N1762   1.438       .  S
C1758      H1763   1.083       .  S
N1759      H1779   1.046       .  S
N1759      H1780   1.046       .  S
C1761      C1764   1.407       .  A
C1761      C1768   1.416       .  A
N1762      H1777   1.046       .  S
N1762      H1778   1.046       .  S
C1764      C1765   1.414       .  A
C1764      H1769   1.084       .  S
C1765      C1766   1.414       .  A
C1765      N1770   1.437       .  S
C1766      C1767   1.410       .  A
C1767      C1768   1.402       .  A
C1767      H1771   1.084       .  S
C1768      N1772   1.440       .  S
N1770      H1773   1.046       .  S
N1770      H1774   1.046       .  S
N1772      H1775   1.046       .  S
N1772      H1776   1.042       .  S
C1781      C1782   1.420       .  A
C1781      C1786   1.410       .  A
C1782      C1783   1.413       .  A
C1782      N1787   1.438       .  S
C1783      C1784   1.405       .  A
C1783      H1788   1.083       .  S
C1784      C1785   1.412       .  A
C1784      C1789   1.499       .  S
C1785      C1786   1.408       .  A
C1785      N1790   1.438       .  S
C1786      H1791   1.083       .  S
N1787      H1807   1.045       .  S
N1787      H1808   1.046       .  S
C1789      C1792   1.403       .  A
C1789      C1796   1.415       .  A
N1790      H1805   1.046       .  S
N1790      H1806   1.046       .  S
C1792      C1793   1.407       .  A
C1792      H1797   1.083       .  S
C1793      C1794   1.416       .  A
C1793      N1798   1.438       .  S
C1794      C1795   1.405       .  A
C1795      C1796   1.414       .  A
C1795      H1799   1.083       .  S
C1796      N1800   1.437       .  S
N1798      H1801   1.046       .  S
N1798      H1802   1.046       .  S
N1800      H1803   1.046       .  S
N1800      H1804   1.046       .  S
C1809      C1810   1.410       .  A
C1809      C1814   1.405       .  A
C1810      C1811   1.403       .  A
C1810      N1815   1.438       .  S
C1811      C1812   1.402       .  A
C1811      H1816   1.084       .  S
C1812      C1813   1.410       .  A
C1812      C1817   1.482       .  S
C1813      C1814   1.406       .  A
C1813      N1818   1.438       .  S
C1814      H1819   1.084       .  S
N1815      H1835   1.046       .  S
N1815      H1836   1.046       .  S
C1817      C1820   1.401       .  A
C1817      C1824   1.407       .  A
N1818      H1833   1.046       .  S
N1818      H1834   1.046       .  S
C1820      C1821   1.407       .  A
C1820      H1825   1.084       .  S
C1821      C1822   1.421       .  A
C1821      N1826   1.438       .  S
C1822      C1823   1.409       .  A
C1823      C1824   1.402       .  A
C1823      H1827   1.083       .  S
C1824      N1828   1.438       .  S
N1826      H1829   1.046       .  S
N1826      H1830   1.046       .  S
N1828      H1831   1.046       .  S
N1828      H1832   1.046       .  S
C1837      C1838   1.417       .  A
C1837      C1842   1.409       .  A
C1838      C1839   1.408       .  A
C1838      N1843   1.432       .  S
C1839      C1840   1.407       .  A
C1839      H1844   1.084       .  S
C1840      C1841   1.414       .  A
C1840      C1845   1.487       .  S
C1841      C1842   1.398       .  A
C1841      N1846   1.440       .  S
C1842      H1847   1.083       .  S
N1843      H1863   1.045       .  S
N1843      H1864   1.046       .  S
C1845      C1848   1.402       .  A
C1845      C1852   1.408       .  A
N1846      H1861   1.045       .  S
N1846      H1862   1.043       .  S
C1848      C1849   1.411       .  A
C1848      H1853   1.084       .  S
C1849      C1850   1.419       .  A
C1849      N1854   1.438       .  S
C1850      C1851   1.411       .  A
C1851      C1852   1.406       .  A
C1851      H1855   1.083       .  S
C1852      N1856   1.439       .  S
N1854      H1857   1.046       .  S
N1854      H1858   1.046       .  S
N1856      H1859   1.046       .  S
N1856      H1860   1.044       .  S
C1865      C1866   1.417       .  A
C1865      C1870   1.405       .  A
C1866      C1867   1.402       .  A
C1866      N1871   1.433       .  S
C1867      C1868   1.398       .  A
C1867      H1872   1.084       .  S
C1868      C1869   1.419       .  A
C1868      C1873   1.486       .  S
C1869      C1870   1.410       .  A
C1869      N1874   1.438       .  S
C1870      H1875   1.084       .  S
N1871      H1891   1.046       .  S
N1871      H1892   1.046       .  S
C1873      C1876   1.403       .  A
C1873      C1880   1.406       .  A
N1874      H1889   1.045       .  S
N1874      H1890   1.043       .  S
C1876      C1877   1.412       .  A
C1876      H1881   1.084       .  S
C1877      C1878   1.419       .  A
C1877      N1882   1.438       .  S
C1878      C1879   1.410       .  A
C1879      C1880   1.405       .  A
C1879      H1883   1.083       .  S
C1880      N1884   1.438       .  S
N1882      H1885   1.046       .  S
N1882      H1886   1.046       .  S
N1884      H1887   1.046       .  S
N1884      H1888   1.046       .  S
C1893      C1894   1.413       .  A
C1893      C1898   1.406       .  A
C1894      C1895   1.400       .  A
C1894      N1899   1.432       .  S
C1895      C1896   1.399       .  A
C1895      H1900   1.084       .  S
C1896      C1897   1.408       .  A
C1896      C1901   1.472       .  S
C1897      C1898   1.405       .  A
C1897      N1902   1.438   1_545  S
C1898      H1903   1.084   1_545  S
N1899      H1919   1.046       .  S
N1899      H1920   1.046       .  S
C1901      C1904   1.400       .  A
C1901      C1908   1.409       .  A
N1902      H1917   1.046       .  S
N1902      H1918   1.044       .  S
C1904      C1905   1.403       .  A
C1904      H1909   1.084       .  S
C1905      C1906   1.410       .  A
C1905      N1910   1.438       .  S
C1906      C1907   1.403       .  A
C1907      C1908   1.404       .  A
C1907      H1911   1.084       .  S
C1908      N1912   1.438       .  S
N1910      H1913   1.046       .  S
N1910      H1914   1.046       .  S
N1912      H1915   1.046       .  S
N1912      H1916   1.044       .  S
C1921      C1922   1.417       .  A
C1921      C1926   1.404       .  A
C1922      C1923   1.402       .  A
C1922      N1927   1.439       .  S
C1923      C1924   1.397       .  A
C1923      H1928   1.084       .  S
C1924      C1925   1.412       .  A
C1924      C1929   1.480       .  S
C1925      C1926   1.410       .  A
C1925      N1930   1.438       .  S
C1926      H1931   1.083       .  S
N1927      H1947   1.046       .  S
N1927      H1948   1.046       .  S
C1929      C1932   1.397       .  A
C1929      C1936   1.408       .  A
N1930      H1945   1.046       .  S
N1930      H1946   1.044       .  S
C1932      C1933   1.405       .  A
C1932      H1937   1.084       .  S
C1933      C1934   1.422       .  A
C1933      N1938   1.438       .  S
C1934      C1935   1.410       .  A
C1935      C1936   1.408       .  A
C1935      H1939   1.083       .  S
C1936      N1940   1.439       .  S
N1938      H1941   1.046       .  S
N1938      H1942   1.045       .  S
N1940      H1943   1.046       .  S
N1940      H1944   1.044       .  S
C1949      C1950   1.414       .  A
C1949      C1954   1.407       .  A
C1950      C1951   1.404       .  A
C1950      N1955   1.433       .  S
C1951      C1952   1.401       .  A
C1951      H1956   1.084       .  S
C1952      C1953   1.408       .  A
C1952      C1957   1.482       .  S
C1953      C1954   1.407       .  A
C1953      N1958   1.437       .  S
C1954      H1959   1.083       .  S
N1955      H1975   1.046       .  S
N1955      H1976   1.046       .  S
C1957      C1960   1.402       .  A
C1957      C1964   1.412       .  A
N1958      H1973   1.046       .  S
N1958      H1974   1.046       .  S
C1960      C1961   1.410       .  A
C1960      H1965   1.084       .  S
C1961      C1962   1.419       .  A
C1961      N1966   1.437       .  S
C1962      C1963   1.412       .  A
C1963      C1964   1.399       .  A
C1963      H1967   1.083       .  S
C1964      N1968   1.440       .  S
N1966      H1969   1.046       .  S
N1966      H1970   1.046       .  S
N1968      H1971   1.046       .  S
N1968      H1972   1.043       .  S
C1977      C1978   1.417       .  A
C1977      C1982   1.404       .  A
C1978      C1979   1.404       .  A
C1978      N1983   1.438       .  S
C1979      C1980   1.401       .  A
C1979      H1984   1.084       .  S
C1980      C1981   1.412       .  A
C1980      C1985   1.484       .  S
C1981      C1982   1.403       .  A
C1981      N1986   1.438       .  S
C1982      H1987   1.084       .  S
N1983      H2003   1.045       .  S
N1983      H2004   1.046       .  S
C1985      C1988   1.402       .  A
C1985      C1992   1.412       .  A
N1986      H2001   1.046       .  S
N1986      H2002   1.046       .  S
C1988      C1989   1.402       .  A
C1988      H1993   1.084       .  S
C1989      C1990   1.413       .  A
C1989      N1994   1.438       .  S
C1990      C1991   1.405       .  A
C1991      C1992   1.405       .  A
C1991      H1995   1.084       .  S
C1992      N1996   1.438   1_545  S
N1994      H1997   1.046       .  S
N1994      H1998   1.046       .  S
N1996      H1999   1.046       .  S
N1996      H2000   1.046       .  S
C2005      C2006   1.413       .  A
C2005      C2010   1.404       .  A
C2006      C2007   1.406       .  A
C2006      N2011   1.438       .  S
C2007      C2008   1.402       .  A
C2007      H2012   1.084       .  S
C2008      C2009   1.414       .  A
C2008      C2013   1.494       .  S
C2009      C2010   1.413       .  A
C2009      N2014   1.437       .  S
C2010      H2015   1.084       .  S
N2011      H2031   1.046       .  S
N2011      H2032   1.046       .  S
C2013      C2016   1.405       .  A
C2013      C2020   1.409       .  A
N2014      H2029   1.046       .  S
N2014      H2030   1.046       .  S
C2016      C2017   1.412       .  A
C2016      H2021   1.084       .  S
C2017      C2018   1.418       .  A
C2017      N2022   1.438       .  S
C2018      C2019   1.410       .  A
C2019      C2020   1.407       .  A
C2019      H2023   1.083       .  S
C2020      N2024   1.438       .  S
N2022      H2025   1.046       .  S
N2022      H2026   1.046       .  S
N2024      H2027   1.046       .  S
N2024      H2028   1.046       .  S
C2033      C2034   1.416       .  A
C2033      C2038   1.409       .  A
C2034      C2035   1.413       .  A
C2034      N2039   1.437       .  S
C2035      C2036   1.404       .  A
C2035      H2040   1.084       .  S
C2036      C2037   1.406       .  A
C2036      C2041   1.487       .  S
C2037      C2038   1.405       .  A
C2037      N2042   1.438       .  S
C2038      H2043   1.083       .  S
N2039      H2059   1.046       .  S
N2039      H2060   1.046       .  S
C2041      C2044   1.402       .  A
C2041      C2048   1.409       .  A
N2042      H2057   1.046       .  S
N2042      H2058   1.046       .  S
C2044      C2045   1.409       .  A
C2044      H2049   1.084       .  S
C2045      C2046   1.415       .  A
C2045      N2050   1.438       .  S
C2046      C2047   1.407       .  A
C2047      C2048   1.409       .  A
C2047      H2051   1.084       .  S
C2048      N2052   1.437       .  S
N2050      H2053   1.046       .  S
N2050      H2054   1.046       .  S
N2052      H2055   1.046       .  S
N2052      H2056   1.045       .  S
C2061      C2062   1.416       .  A
C2061      C2066   1.406       .  A
C2062      C2063   1.407       .  A
C2062      N2067   1.438       .  S
C2063      C2064   1.401       .  A
C2063      H2068   1.084       .  S
C2064      C2065   1.407       .  A
C2064      C2069   1.479       .  S
C2065      C2066   1.403       .  A
C2065      N2070   1.438       .  S
C2066      H2071   1.083       .  S
N2067      H2087   1.046       .  S
N2067      H2088   1.046       .  S
C2069      C2072   1.401       .  A
C2069      C2076   1.408       .  A
N2070      H2085   1.046       .  S
N2070      H2086   1.046       .  S
C2072      C2073   1.406       .  A
C2072      H2077   1.084       .  S
C2073      C2074   1.415       .  A
C2073      N2078   1.438       .  S
C2074      C2075   1.406       .  A
C2075      C2076   1.405       .  A
C2075      H2079   1.083       .  S
C2076      N2080   1.438       .  S
N2078      H2081   1.046       .  S
N2078      H2082   1.046       .  S
N2080      H2083   1.046       .  S
N2080      H2084   1.046       .  S
C2089      C2090   1.420       .  A
C2089      C2094   1.409       .  A
C2090      C2091   1.407       .  A
C2090      N2095   1.438       .  S
C2091      C2092   1.401       .  A
C2091      H2096   1.084       .  S
C2092      C2093   1.407       .  A
C2092      C2097   1.485       .  S
C2093      C2094   1.406       .  A
C2093      N2098   1.438       .  S
C2094      H2099   1.083       .  S
N2095      H2115   1.046       .  S
N2095      H2116   1.046       .  S
C2097      C2100   1.405       .  A
C2097      C2104   1.406       .  A
N2098      H2113   1.046       .  S
N2098      H2114   1.046       .  S
C2100      C2101   1.405       .  A
C2100      H2105   1.084       .  S
C2101      C2102   1.418       .  A
C2101      N2106   1.432       .  S
C2102      C2103   1.410       .  A
C2103      C2104   1.403       .  A
C2103      H2107   1.083       .  S
C2104      N2108   1.438       .  S
N2106      H2109   1.045       .  S
N2106      H2110   1.045       .  S
N2108      H2111   1.046       .  S
N2108      H2112   1.046       .  S
C2117      C2118   1.416       .  A
C2117      C2122   1.405       .  A
C2118      C2119   1.406       .  A
C2118      N2123   1.438       .  S
C2119      C2120   1.402       .  A
C2119      H2124   1.084       .  S
C2120      C2121   1.413       .  A
C2120      C2125   1.492       .  S
C2121      C2122   1.411       .  A
C2121      N2126   1.437       .  S
C2122      H2127   1.083       .  S
N2123      H2143   1.046       .  S
N2123      H2144   1.046       .  S
C2125      C2128   1.404       .  A
C2125      C2132   1.410       .  A
N2126      H2141   1.046       .  S
N2126      H2142   1.046       .  S
C2128      C2129   1.410       .  A
C2128      H2133   1.084       .  S
C2129      C2130   1.416       .  A
C2129      N2134   1.438       .  S
C2130      C2131   1.409       .  A
C2131      C2132   1.407       .  A
C2131      H2135   1.083       .  S
C2132      N2136   1.438       .  S
N2134      H2137   1.046       .  S
N2134      H2138   1.046       .  S
N2136      H2139   1.046       .  S
N2136      H2140   1.046       .  S
C2145      C2146   1.410       .  A
C2145      C2150   1.407       .  A
C2146      C2147   1.401       .  A
C2146      N2151   1.432       .  S
C2147      C2148   1.402       .  A
C2147      H2152   1.084       .  S
C2148      C2149   1.415       .  A
C2148      C2153   1.478   1_556  S
C2149      C2150   1.401       .  A
C2149      N2154   1.439       .  S
C2150      H2155   1.084       .  S
N2151      H2171   1.046       .  S
N2151      H2172   1.046       .  S
C2153      C2156   1.401       .  A
C2153      C2160   1.407       .  A
N2154      H2169   1.046       .  S
N2154      H2170   1.043   1_556  S
C2156      C2157   1.403       .  A
C2156      H2161   1.084       .  S
C2157      C2158   1.412       .  A
C2157      N2162   1.433       .  S
C2158      C2159   1.406       .  A
C2159      C2160   1.403       .  A
C2159      H2163   1.084       .  S
C2160      N2164   1.438       .  S
N2162      H2165   1.046       .  S
N2162      H2166   1.046       .  S
N2164      H2167   1.046       .  S
N2164      H2168   1.046       .  S
C2173      C2174   1.422       .  A
C2173      C2178   1.410       .  A
C2174      C2175   1.407       .  A
C2174      N2179   1.438       .  S
C2175      C2176   1.400       .  A
C2175      H2180   1.084       .  S
C2176      C2177   1.407       .  A
C2176      C2181   1.485       .  S
C2177      C2178   1.408       .  A
C2177      N2182   1.438       .  S
C2178      H2183   1.083       .  S
N2179      H2199   1.046       .  S
N2179      H2200   1.046       .  S
C2181      C2184   1.406       .  A
C2181      C2188   1.413       .  A
N2182      H2197   1.046       .  S
N2182      H2198   1.046       .  S
C2184      C2185   1.413       .  A
C2184      H2189   1.084       .  S
C2185      C2186   1.415       .  A
C2185      N2190   1.437       .  S
C2186      C2187   1.410       .  A
C2187      C2188   1.398       .  A
C2187      H2191   1.084       .  S
C2188      N2192   1.440       .  S
N2190      H2193   1.046       .  S
N2190      H2194   1.046       .  S
N2192      H2195   1.046       .  S
N2192      H2196   1.042       .  S
C2201      C2202   1.413       .  A
C2201      C2206   1.404       .  A
C2202      C2203   1.404       .  A
C2202      N2207   1.438       .  S
C2203      C2204   1.401       .  A
C2203      H2208   1.084       .  S
C2204      C2205   1.412       .  A
C2204      C2209   1.488       .  S
C2205      C2206   1.411       .  A
C2205      N2210   1.437       .  S
C2206      H2211   1.084       .  S
N2207      H2227   1.046       .  S
N2207      H2228   1.046       .  S
C2209      C2212   1.404       .  A
C2209      C2216   1.407       .  A
N2210      H2225   1.046       .  S
N2210      H2226   1.046       .  S
C2212      C2213   1.411       .  A
C2212      H2217   1.084       .  S
C2213      C2214   1.417       .  A
C2213      N2218   1.437       .  S
C2214      C2215   1.409       .  A
C2215      C2216   1.405       .  A
C2215      H2219   1.083       .  S
C2216      N2220   1.438       .  S
N2218      H2221   1.046       .  S
N2218      H2222   1.046       .  S
N2220      H2223   1.046       .  S
N2220      H2224   1.046       .  S
C2229      C2230   1.415       .  A
C2229      C2234   1.407       .  A
C2230      C2231   1.404       .  A
C2230      N2235   1.437       .  S
C2231      C2232   1.402       .  A
C2231      H2236   1.084       .  S
C2232      C2233   1.410       .  A
C2232      C2237   1.485   1_655  S
C2233      C2234   1.405       .  A
C2233      N2238   1.438       .  S
C2234      H2239   1.083       .  S
N2235      H2255   1.046       .  S
N2235      H2256   1.046       .  S
C2237      C2240   1.403       .  A
C2237      C2244   1.410       .  A
N2238      H2253   1.045       .  S
N2238      H2254   1.046       .  S
C2240      C2241   1.405       .  A
C2240      H2245   1.084       .  S
C2241      C2242   1.416       .  A
C2241      N2246   1.438       .  S
C2242      C2243   1.405       .  A
C2243      C2244   1.402       .  A
C2243      H2247   1.083       .  S
C2244      N2248   1.438       .  S
N2246      H2249   1.046       .  S
N2246      H2250   1.045       .  S
N2248      H2251   1.046       .  S
N2248      H2252   1.046       .  S
C2257      C2258   1.417       .  A
C2257      C2262   1.409       .  A
C2258      C2259   1.407       .  A
C2258      N2263   1.438       .  S
C2259      C2260   1.404       .  A
C2259      H2264   1.084       .  S
C2260      C2261   1.409       .  A
C2260      C2265   1.491       .  S
C2261      C2262   1.407       .  A
C2261      N2266   1.438       .  S
C2262      H2267   1.083       .  S
N2263      H2283   1.046       .  S
N2263      H2284   1.046       .  S
C2265      C2268   1.406       .  A
C2265      C2272   1.407       .  A
N2266      H2281   1.046       .  S
N2266      H2282   1.046       .  S
C2268      C2269   1.414       .  A
C2268      H2273   1.083       .  S
C2269      C2270   1.418       .  A
C2269      N2274   1.437       .  S
C2270      C2271   1.413       .  A
C2271      C2272   1.401       .  A
C2271      H2275   1.082       .  S
C2272      N2276   1.439       .  S
N2274      H2277   1.046       .  S
N2274      H2278   1.045       .  S
N2276      H2279   1.045       .  S
N2276      H2280   1.046       .  S
C2285      C2286   1.416       .  A
C2285      C2290   1.409       .  A
C2286      C2287   1.406       .  A
C2286      N2291   1.432       .  S
C2287      C2288   1.405       .  A
C2287      H2292   1.084       .  S
C2288      C2289   1.413       .  A
C2288      C2293   1.484       .  S
C2289      C2290   1.399       .  A
C2289      N2294   1.439       .  S
C2290      H2295   1.084       .  S
N2291      H2311   1.045       .  S
N2291      H2312   1.046       .  S
C2293      C2296   1.402       .  A
C2293      C2300   1.406       .  A
N2294      H2309   1.045       .  S
N2294      H2310   1.043       .  S
C2296      C2297   1.412       .  A
C2296      H2301   1.084       .  S
C2297      C2298   1.419       .  A
C2297      N2302   1.438       .  S
C2298      C2299   1.410       .  A
C2299      C2300   1.405       .  A
C2299      H2303   1.083       .  S
C2300      N2304   1.438       .  S
N2302      H2305   1.046       .  S
N2302      H2306   1.045       .  S
N2304      H2307   1.045       .  S
N2304      H2308   1.045       .  S
C2313      C2314   1.415       .  A
C2313      C2318   1.405       .  A
C2314      C2315   1.402       .  A
C2314      N2319   1.438       .  S
C2315      C2316   1.401       .  A
C2315      H2320   1.084       .  S
C2316      C2317   1.416       .  A
C2316      C2321   1.479       .  S
C2317      C2318   1.400       .  A
C2317      N2322   1.440       .  S
C2318      H2323   1.084       .  S
N2319      H2339   1.046       .  S
N2319      H2340   1.046       .  S
C2321      C2324   1.401       .  A
C2321      C2328   1.409       .  A
N2322      H2337   1.046       .  S
N2322      H2338   1.043       .  S
C2324      C2325   1.402   1_565  A
C2324      H2329   1.084       .  S
C2325      C2326   1.414       .  A
C2325      N2330   1.438       .  S
C2326      C2327   1.405       .  A
C2327      C2328   1.404   1_545  A
C2327      H2331   1.084       .  S
C2328      N2332   1.438       .  S
N2330      H2333   1.046       .  S
N2330      H2334   1.045       .  S
N2332      H2335   1.046       .  S
N2332      H2336   1.046       .  S
C2341      C2342   1.419       .  A
C2341      C2346   1.404       .  A
C2342      C2343   1.402       .  A
C2342      N2347   1.439       .  S
C2343      C2344   1.399       .  A
C2343      H2348   1.084       .  S
C2344      C2345   1.421       .  A
C2344      C2349   1.489       .  S
C2345      C2346   1.409       .  A
C2345      N2350   1.438       .  S
C2346      H2351   1.084       .  S
N2347      H2367   1.046       .  S
N2347      H2368   1.046       .  S
C2349      C2352   1.401       .  A
C2349      C2356   1.409       .  A
N2350      H2365   1.046       .  S
N2350      H2366   1.043       .  S
C2352      C2353   1.409       .  A
C2352      H2357   1.084       .  S
C2353      C2354   1.421       .  A
C2353      N2358   1.438       .  S
C2354      C2355   1.409       .  A
C2355      C2356   1.407       .  A
C2355      H2359   1.083       .  S
C2356      N2360   1.438       .  S
N2358      H2361   1.046       .  S
N2358      H2362   1.045       .  S
N2360      H2363   1.046       .  S
N2360      H2364   1.046       .  S
C2369      C2370   1.418       .  A
C2369      C2374   1.410       .  A
C2370      C2371   1.405       .  A
C2370      N2375   1.432       .  S
C2371      C2372   1.406       .  A
C2371      H2376   1.084       .  S
C2372      C2373   1.408       .  A
C2372      C2377   1.490       .  S
C2373      C2374   1.402       .  A
C2373      N2378   1.439       .  S
C2374      H2379   1.083       .  S
N2375      H2395   1.045       .  S
N2375      H2396   1.046       .  S
C2377      C2380   1.402       .  A
C2377      C2384   1.409       .  A
N2378      H2393   1.046       .  S
N2378      H2394   1.046       .  S
C2380      C2381   1.406       .  A
C2380      H2385   1.084       .  S
C2381      C2382   1.421       .  A
C2381      N2386   1.438       .  S
C2382      C2383   1.410       .  A
C2383      C2384   1.407       .  A
C2383      H2387   1.083       .  S
C2384      N2388   1.438       .  S
N2386      H2389   1.046       .  S
N2386      H2390   1.045       .  S
N2388      H2391   1.046       .  S
N2388      H2392   1.046       .  S
C2397      C2398   1.415       .  A
C2397      C2402   1.405       .  A
C2398      C2399   1.404       .  A
C2398      N2403   1.438       .  S
C2399      C2400   1.400       .  A
C2399      H2404   1.084       .  S
C2400      C2401   1.406       .  A
C2400      C2405   1.471   1_556  S
C2401      C2402   1.402       .  A
C2401      N2406   1.438       .  S
C2402      H2407   1.084       .  S
N2403      H2423   1.046       .  S
N2403      H2424   1.046       .  S
C2405      C2408   1.401       .  A
C2405      C2412   1.407       .  A
N2406      H2421   1.046       .  S
N2406      H2422   1.045   1_556  S
C2408      C2409   1.405       .  A
C2408      H2413   1.084       .  S
C2409      C2410   1.410       .  A
C2409      N2414   1.438       .  S
C2410      C2411   1.402       .  A
C2411      C2412   1.402       .  A
C2411      H2415   1.084       .  S
C2412      N2416   1.438       .  S
N2414      H2417   1.045       .  S
N2414      H2418   1.046       .  S
N2416      H2419   1.046       .  S
N2416      H2420   1.045       .  S
C2425      C2426   1.419       .  A
C2425      C2430   1.409       .  A
C2426      C2427   1.409       .  A
C2426      N2431   1.438       .  S
C2427      C2428   1.401       .  A
C2427      H2432   1.084       .  S
C2428      C2429   1.408       .  A
C2428      C2433   1.485       .  S
C2429      C2430   1.408       .  A
C2429      N2434   1.438       .  S
C2430      H2435   1.083       .  S
N2431      H2451   1.045       .  S
N2431      H2452   1.046       .  S
C2433      C2436   1.406       .  A
C2433      C2440   1.412       .  A
N2434      H2449   1.046       .  S
N2434      H2450   1.045       .  S
C2436      C2437   1.408       .  A
C2436      H2441   1.084       .  S
C2437      C2438   1.418       .  A
C2437      N2442   1.432       .  S
C2438      C2439   1.410       .  A
C2439      C2440   1.398       .  A
C2439      H2443   1.084       .  S
C2440      N2444   1.439       .  S
N2442      H2445   1.046       .  S
N2442      H2446   1.045       .  S
N2444      H2447   1.045       .  S
N2444      H2448   1.043       .  S
C2453      C2454   1.413       .  A
C2453      C2458   1.405       .  A
C2454      C2455   1.403       .  A
C2454      N2459   1.433       .  S
C2455      C2456   1.402       .  A
C2455      H2460   1.084       .  S
C2456      C2457   1.416       .  A
C2456      C2461   1.497       .  S
C2457      C2458   1.415       .  A
C2457      N2462   1.437       .  S
C2458      H2463   1.083       .  S
N2459      H2479   1.046       .  S
N2459      H2480   1.046       .  S
C2461      C2464   1.404       .  A
C2461      C2468   1.411       .  A
N2462      H2477   1.046       .  S
N2462      H2478   1.046       .  S
C2464      C2465   1.412       .  A
C2464      H2469   1.084       .  S
C2465      C2466   1.420       .  A
C2465      N2470   1.438       .  S
C2466      C2467   1.410       .  A
C2467      C2468   1.409       .  A
C2467      H2471   1.083       .  S
C2468      N2472   1.438       .  S
N2470      H2473   1.046       .  S
N2470      H2474   1.046       .  S
N2472      H2475   1.046       .  S
N2472      H2476   1.045       .  S
C2481      C2482   1.415       .  A
C2481      C2486   1.408       .  A
C2482      C2483   1.403       .  A
C2482      N2487   1.432       .  S
C2483      C2484   1.402       .  A
C2483      H2488   1.084       .  S
C2484      C2485   1.410       .  A
C2484      C2489   1.485   1_556  S
C2485      C2486   1.405       .  A
C2485      N2490   1.438       .  S
C2486      H2491   1.083       .  S
N2487      H2507   1.046       .  S
N2487      H2508   1.046       .  S
C2489      C2492   1.402       .  A
C2489      C2496   1.411       .  A
N2490      H2505   1.046       .  S
N2490      H2506   1.046       .  S
C2492      C2493   1.404       .  A
C2492      H2497   1.084       .  S
C2493      C2494   1.414       .  A
C2493      N2498   1.438       .  S
C2494      C2495   1.405       .  A
C2495      C2496   1.406       .  A
C2495      H2499   1.084       .  S
C2496      N2500   1.438       .  S
N2498      H2501   1.046       .  S
N2498      H2502   1.046       .  S
N2500      H2503   1.046       .  S
N2500      H2504   1.046       .  S
C2509      C2510   1.414       .  A
C2509      C2514   1.410       .  A
C2510      C2511   1.412       .  A
C2510      N2515   1.437       .  S
C2511      C2512   1.404       .  A
C2511      H2516   1.084       .  S
C2512      C2513   1.404       .  A
C2512      C2517   1.480       .  S
C2513      C2514   1.401       .  A
C2513      N2518   1.438       .  S
C2514      H2519   1.083       .  S
N2515      H2535   1.046       .  S
N2515      H2536   1.046       .  S
C2517      C2520   1.404       .  A
C2517      C2524   1.404       .  A
N2518      H2533   1.046       .  S
N2518      H2534   1.046       .  S
C2520      C2521   1.410       .  A
C2520      H2525   1.084       .  S
C2521      C2522   1.413       .  A
C2521      N2526   1.437       .  S
C2522      C2523   1.409       .  A
C2523      C2524   1.403       .  A
C2523      H2527   1.083       .  S
C2524      N2528   1.438       .  S
N2526      H2529   1.046       .  S
N2526      H2530   1.046       .  S
N2528      H2531   1.046       .  S
N2528      H2532   1.046       .  S
C2537      C2538   1.421       .  A
C2537      C2542   1.413       .  A
C2538      C2539   1.407       .  A
C2538      N2543   1.431       .  S
C2539      C2540   1.405       .  A
C2539      H2544   1.084       .  S
C2540      C2541   1.413       .  A
C2540      C2545   1.489       .  S
C2541      C2542   1.401       .  A
C2541      N2546   1.440       .  S
C2542      H2547   1.083       .  S
N2543      H2563   1.045       .  S
N2543      H2564   1.045       .  S
C2545      C2548   1.402       .  A
C2545      C2552   1.407       .  A
N2546      H2561   1.046       .  S
N2546      H2562   1.043       .  S
C2548      C2549   1.413       .  A
C2548      H2553   1.084       .  S
C2549      C2550   1.420       .  A
C2549      N2554   1.438       .  S
C2550      C2551   1.412       .  A
C2551      C2552   1.406       .  A
C2551      H2555   1.083       .  S
C2552      N2556   1.438       .  S
N2554      H2557   1.046       .  S
N2554      H2558   1.046       .  S
N2556      H2559   1.046       .  S
N2556      H2560   1.045       .  S
C2565      C2566   1.411       .  A
C2565      C2570   1.405       .  A
C2566      C2567   1.397   1_545  A
C2566      N2571   1.433       .  S
C2567      C2568   1.401       .  A
C2567      H2572   1.084       .  S
C2568      C2569   1.411       .  A
C2568      C2573   1.482       .  S
C2569      C2570   1.406   1_565  A
C2569      N2574   1.437       .  S
C2570      H2575   1.084       .  S
N2571      H2591   1.046       .  S
N2571      H2592   1.046       .  S
C2573      C2576   1.403       .  A
C2573      C2580   1.411       .  A
N2574      H2589   1.046       .  S
N2574      H2590   1.045       .  S
C2576      C2577   1.405       .  A
C2576      H2581   1.084       .  S
C2577      C2578   1.414       .  A
C2577      N2582   1.438       .  S
C2578      C2579   1.403       .  A
C2579      C2580   1.401       .  A
C2579      H2583   1.084       .  S
C2580      N2584   1.438       .  S
N2582      H2585   1.046       .  S
N2582      H2586   1.046       .  S
N2584      H2587   1.046       .  S
N2584      H2588   1.046       .  S
C2593      C2594   1.417       .  A
C2593      C2598   1.406       .  A
C2594      C2595   1.403       .  A
C2594      N2599   1.438       .  S
C2595      C2596   1.400       .  A
C2595      H2600   1.084       .  S
C2596      C2597   1.412       .  A
C2596      C2601   1.489       .  S
C2597      C2598   1.412       .  A
C2597      N2602   1.437       .  S
C2598      H2603   1.083       .  S
N2599      H2619   1.046       .  S
N2599      H2620   1.046       .  S
C2601      C2604   1.404       .  A
C2601      C2608   1.409       .  A
N2602      H2617   1.046       .  S
N2602      H2618   1.046       .  S
C2604      C2605   1.411       .  A
C2604      H2609   1.084       .  S
C2605      C2606   1.416       .  A
C2605      N2610   1.437       .  S
C2606      C2607   1.408       .  A
C2607      C2608   1.405       .  A
C2607      H2611   1.083       .  S
C2608      N2612   1.438       .  S
N2610      H2613   1.046       .  S
N2610      H2614   1.046       .  S
N2612      H2615   1.046       .  S
N2612      H2616   1.046       .  S
C2621      C2622   1.414       .  A
C2621      C2626   1.408       .  A
C2622      C2623   1.414       .  A
C2622      N2627   1.437       .  S
C2623      C2624   1.408       .  A
C2623      H2628   1.083       .  S
C2624      C2625   1.410       .  A
C2624      C2629   1.495       .  S
C2625      C2626   1.404       .  A
C2625      N2630   1.438       .  S
C2626      H2631   1.084       .  S
N2627      H2647   1.045       .  S
N2627      H2648   1.046       .  S
C2629      C2632   1.403       .  A
C2629      C2636   1.412       .  A
N2630      H2645   1.046       .  S
N2630      H2646   1.046       .  S
C2632      C2633   1.408       .  A
C2632      H2637   1.084       .  S
C2633      C2634   1.418       .  A
C2633      N2638   1.438       .  S
C2634      C2635   1.409       .  A
C2635      C2636   1.411       .  A
C2635      H2639   1.083       .  S
C2636      N2640   1.438       .  S
N2638      H2641   1.046       .  S
N2638      H2642   1.046       .  S
N2640      H2643   1.046       .  S
N2640      H2644   1.046       .  S
C2649      C2650   1.411       .  A
C2649      C2654   1.403       .  A
C2650      C2651   1.407       .  A
C2650      N2655   1.436       .  S
C2651      C2652   1.401       .  A
C2651      H2656   1.084       .  S
C2652      C2653   1.416       .  A
C2652      C2657   1.480   1_455  S
C2653      C2654   1.401       .  A
C2653      N2658   1.439       .  S
C2654      H2659   1.084       .  S
N2655      H2675   1.046       .  S
N2655      H2676   1.045       .  S
C2657      C2660   1.401       .  A
C2657      C2664   1.408       .  A
N2658      H2673   1.046       .  S
N2658      H2674   1.043   1_455  S
C2660      C2661   1.406       .  A
C2660      H2665   1.084       .  S
C2661      C2662   1.414       .  A
C2661      N2666   1.438       .  S
C2662      C2663   1.405       .  A
C2663      C2664   1.405       .  A
C2663      H2667   1.084       .  S
C2664      N2668   1.438       .  S
N2666      H2669   1.045       .  S
N2666      H2670   1.046       .  S
N2668      H2671   1.046       .  S
N2668      H2672   1.045       .  S
C2677      C2678   1.412       .  A
C2677      C2682   1.406       .  A
C2678      C2679   1.400       .  A
C2678      N2683   1.432       .  S
C2679      C2680   1.400       .  A
C2679      H2684   1.084       .  S
C2680      C2681   1.413       .  A
C2680      C2685   1.490       .  S
C2681      C2682   1.415       .  A
C2681      N2686   1.437       .  S
C2682      H2687   1.083       .  S
N2683      H2703   1.046       .  S
N2683      H2704   1.046       .  S
C2685      C2688   1.404       .  A
C2685      C2692   1.408       .  A
N2686      H2701   1.046       .  S
N2686      H2702   1.046       .  S
C2688      C2689   1.412       .  A
C2688      H2693   1.084       .  S
C2689      C2690   1.420       .  A
C2689      N2694   1.438       .  S
C2690      C2691   1.409       .  A
C2691      C2692   1.405       .  A
C2691      H2695   1.083       .  S
C2692      N2696   1.438       .  S
N2694      H2697   1.046       .  S
N2694      H2698   1.046       .  S
N2696      H2699   1.046       .  S
N2696      H2700   1.046       .  S
C2705      C2706   1.415       .  A
C2705      C2710   1.405       .  A
C2706      C2707   1.405       .  A
C2706      N2711   1.438       .  S
C2707      C2708   1.401       .  A
C2707      H2712   1.084       .  S
C2708      C2709   1.412       .  A
C2708      C2713   1.489       .  S
C2709      C2710   1.413       .  A
C2709      N2714   1.437       .  S
C2710      H2715   1.083       .  S
N2711      H2731   1.046       .  S
N2711      H2732   1.046       .  S
C2713      C2716   1.403       .  A
C2713      C2720   1.407       .  A
N2714      H2729   1.046       .  S
N2714      H2730   1.046       .  S
C2716      C2717   1.412       .  A
C2716      H2721   1.084       .  S
C2717      C2718   1.420       .  A
C2717      N2722   1.438       .  S
C2718      C2719   1.410       .  A
C2719      C2720   1.406       .  A
C2719      H2723   1.083       .  S
C2720      N2724   1.438       .  S
N2722      H2725   1.046       .  S
N2722      H2726   1.046       .  S
N2724      H2727   1.046       .  S
N2724      H2728   1.046       .  S
C2733      C2734   1.416       .  A
C2733      C2738   1.408       .  A
C2734      C2735   1.406       .  A
C2734      N2739   1.438       .  S
C2735      C2736   1.401       .  A
C2735      H2740   1.084       .  S
C2736      C2737   1.407       .  A
C2736      C2741   1.480       .  S
C2737      C2738   1.404       .  A
C2737      N2742   1.438       .  S
C2738      H2743   1.083       .  S
N2739      H2759   1.046       .  S
N2739      H2760   1.046       .  S
C2741      C2744   1.400       .  A
C2741      C2748   1.408       .  A
N2742      H2757   1.046       .  S
N2742      H2758   1.046       .  S
C2744      C2745   1.405   1_565  A
C2744      H2749   1.084       .  S
C2745      C2746   1.416       .  A
C2745      N2750   1.436       .  S
C2746      C2747   1.406       .  A
C2747      C2748   1.405   1_545  A
C2747      H2751   1.083       .  S
C2748      N2752   1.438       .  S
N2750      H2753   1.046       .  S
N2750      H2754   1.046       .  S
N2752      H2755   1.046       .  S
N2752      H2756   1.046       .  S
C2761      C2762   1.416       .  A
C2761      C2766   1.403       .  A
C2762      C2763   1.404       .  A
C2762      N2767   1.439       .  S
C2763      C2764   1.402       .  A
C2763      H2768   1.084       .  S
C2764      C2765   1.415       .  A
C2764      C2769   1.495       .  S
C2765      C2766   1.413       .  A
C2765      N2770   1.437       .  S
C2766      H2771   1.083       .  S
N2767      H2787   1.046       .  S
N2767      H2788   1.046       .  S
C2769      C2772   1.404       .  A
C2769      C2776   1.412       .  A
N2770      H2785   1.046       .  S
N2770      H2786   1.045       .  S
C2772      C2773   1.410       .  A
C2772      H2777   1.084       .  S
C2773      C2774   1.418       .  A
C2773      N2778   1.438       .  S
C2774      C2775   1.409       .  A
C2775      C2776   1.408       .  A
C2775      H2779   1.083       .  S
C2776      N2780   1.438       .  S
N2778      H2781   1.046       .  S
N2778      H2782   1.046       .  S
N2780      H2783   1.046       .  S
N2780      H2784   1.046       .  S
C2789      C2790   1.418       .  A
C2789      C2794   1.412       .  A
C2790      C2791   1.413       .  A
C2790      N2795   1.437       .  S
C2791      C2792   1.404       .  A
C2791      H2796   1.084       .  S
C2792      C2793   1.404       .  A
C2792      C2797   1.484       .  S
C2793      C2794   1.402       .  A
C2793      N2798   1.438       .  S
C2794      H2799   1.083       .  S
N2795      H2815   1.045       .  S
N2795      H2816   1.046       .  S
C2797      C2800   1.401       .  A
C2797      C2804   1.407       .  A
N2798      H2813   1.046       .  S
N2798      H2814   1.046       .  S
C2800      C2801   1.407       .  A
C2800      H2805   1.084       .  S
C2801      C2802   1.418       .  A
C2801      N2806   1.438       .  S
C2802      C2803   1.409       .  A
C2803      C2804   1.408       .  A
C2803      H2807   1.083       .  S
C2804      N2808   1.437       .  S
N2806      H2809   1.046       .  S
N2806      H2810   1.046       .  S
N2808      H2811   1.046       .  S
N2808      H2812   1.046       .  S
C2817      C2818   1.416       .  A
C2817      C2822   1.406       .  A
C2818      C2819   1.404       .  A
C2818      N2823   1.438       .  S
C2819      C2820   1.399       .  A
C2819      H2824   1.084       .  S
C2820      C2821   1.407       .  A
C2820      C2825   1.474   1_655  S
C2821      C2822   1.404       .  A
C2821      N2826   1.438       .  S
C2822      H2827   1.084       .  S
N2823      H2843   1.046       .  S
N2823      H2844   1.046       .  S
C2825      C2828   1.401       .  A
C2825      C2832   1.415       .  A
N2826      H2841   1.046       .  S
N2826      H2842   1.045       .  S
C2828      C2829   1.404       .  A
C2828      H2833   1.084       .  S
C2829      C2830   1.409       .  A
C2829      N2834   1.437       .  S
C2830      C2831   1.402       .  A
C2831      C2832   1.400       .  A
C2831      H2835   1.084       .  S
C2832      N2836   1.439       .  S
N2834      H2837   1.045       .  S
N2834      H2838   1.046       .  S
N2836      H2839   1.046       .  S
N2836      H2840   1.043   1_455  S
C2845      C2846   1.420       .  A
C2845      C2850   1.408       .  A
C2846      C2847   1.408       .  A
C2846      N2851   1.438       .  S
C2847      C2848   1.401       .  A
C2847      H2852   1.084       .  S
C2848      C2849   1.409       .  A
C2848      C2853   1.489       .  S
C2849      C2850   1.410       .  A
C2849      N2854   1.437       .  S
C2850      H2855   1.083       .  S
N2851      H2871   1.046       .  S
N2851      H2872   1.046       .  S
C2853      C2856   1.405       .  A
C2853      C2860   1.406       .  A
N2854      H2869   1.045       .  S
N2854      H2870   1.046       .  S
C2856      C2857   1.414       .  A
C2856      H2861   1.084       .  S
C2857      C2858   1.418       .  A
C2857      N2862   1.437       .  S
C2858      C2859   1.412       .  A
C2859      C2860   1.403       .  A
C2859      H2863   1.082       .  S
C2860      N2864   1.439       .  S
N2862      H2865   1.046       .  S
N2862      H2866   1.046       .  S
N2864      H2867   1.046       .  S
N2864      H2868   1.046       .  S
C2873      C2874   1.414       .  A
C2873      C2878   1.407       .  A
C2874      C2875   1.400       .  A
C2874      N2879   1.433       .  S
C2875      C2876   1.400       .  A
C2875      H2880   1.084       .  S
C2876      C2877   1.413       .  A
C2876      C2881   1.489       .  S
C2877      C2878   1.414       .  A
C2877      N2882   1.437       .  S
C2878      H2883   1.083       .  S
N2879      H2899   1.046       .  S
N2879      H2900   1.046       .  S
C2881      C2884   1.404       .  A
C2881      C2888   1.407       .  A
N2882      H2897   1.046       .  S
N2882      H2898   1.046       .  S
C2884      C2885   1.413       .  A
C2884      H2889   1.084       .  S
C2885      C2886   1.420       .  A
C2885      N2890   1.438       .  S
C2886      C2887   1.410       .  A
C2887      C2888   1.404       .  A
C2887      H2891   1.083       .  S
C2888      N2892   1.438       .  S
N2890      H2893   1.046       .  S
N2890      H2894   1.046       .  S
N2892      H2895   1.046       .  S
N2892      H2896   1.046       .  S
C2901      C2902   1.417       .  A
C2901      C2906   1.406       .  A
C2902      C2903   1.406       .  A
C2902      N2907   1.438       .  S
C2903      C2904   1.402       .  A
C2903      H2908   1.084       .  S
C2904      C2905   1.409       .  A
C2904      C2909   1.483   1_556  S
C2905      C2906   1.404       .  A
C2905      N2910   1.438       .  S
C2906      H2911   1.083       .  S
N2907      H2927   1.046       .  S
N2907      H2928   1.046       .  S
C2909      C2912   1.400       .  A
C2909      C2916   1.410       .  A
N2910      H2925   1.046       .  S
N2910      H2926   1.046       .  S
C2912      C2913   1.400       .  A
C2912      H2917   1.084       .  S
C2913      C2914   1.415       .  A
C2913      N2918   1.432       .  S
C2914      C2915   1.408       .  A
C2915      C2916   1.408       .  A
C2915      H2919   1.083       .  S
C2916      N2920   1.438       .  S
N2918      H2921   1.046       .  S
N2918      H2922   1.046       .  S
N2920      H2923   1.045       .  S
N2920      H2924   1.046       .  S
C2929      C2930   1.418       .  A
C2929      C2934   1.408       .  A
C2930      C2931   1.410       .  A
C2930      N2935   1.438       .  S
C2931      C2932   1.404       .  A
C2931      H2936   1.084       .  S
C2932      C2933   1.411       .  A
C2932      C2937   1.494       .  S
C2933      C2934   1.408       .  A
C2933      N2938   1.438       .  S
C2934      H2939   1.083       .  S
N2935      H2955   1.046       .  S
N2935      H2956   1.046       .  S
C2937      C2940   1.402       .  A
C2937      C2944   1.414       .  A
N2938      H2953   1.046       .  S
N2938      H2954   1.046       .  S
C2940      C2941   1.406       .  A
C2940      H2945   1.084       .  S
C2941      C2942   1.417       .  A
C2941      N2946   1.438       .  S
C2942      C2943   1.405       .  A
C2943      C2944   1.412       .  A
C2943      H2947   1.083       .  S
C2944      N2948   1.437       .  S
N2946      H2949   1.046       .  S
N2946      H2950   1.046       .  S
N2948      H2951   1.046       .  S
N2948      H2952   1.046       .  S
C2957      C2958   1.418       .  A
C2957      C2962   1.412       .  A
C2958      C2959   1.413       .  A
C2958      N2963   1.437       .  S
C2959      C2960   1.404       .  A
C2959      H2964   1.084       .  S
C2960      C2961   1.405       .  A
C2960      C2965   1.486       .  S
C2961      C2962   1.403       .  A
C2961      N2966   1.438       .  S
C2962      H2967   1.083       .  S
N2963      H2983   1.046       .  S
N2963      H2984   1.046       .  S
C2965      C2968   1.402       .  A
C2965      C2972   1.408       .  A
N2966      H2981   1.046       .  S
N2966      H2982   1.046       .  S
C2968      C2969   1.408       .  A
C2968      H2973   1.084       .  S
C2969      C2970   1.416       .  A
C2969      N2974   1.438       .  S
C2970      C2971   1.407       .  A
C2971      C2972   1.409       .  A
C2971      H2975   1.083       .  S
C2972      N2976   1.437       .  S
N2974      H2977   1.046       .  S
N2974      H2978   1.046       .  S
N2976      H2979   1.046       .  S
N2976      H2980   1.046       .  S
C2985      C2986   1.414       .  A
C2985      C2990   1.405       .  A
C2986      C2987   1.404       .  A
C2986      N2991   1.438       .  S
C2987      C2988   1.402       .  A
C2987      H2992   1.084       .  S
C2988      C2989   1.411       .  A
C2988      C2993   1.483   1_655  S
C2989      C2990   1.406       .  A
C2989      N2994   1.438       .  S
C2990      H2995   1.084       .  S
N2991      H3011   1.046       .  S
N2991      H3012   1.046       .  S
C2993      C2996   1.400       .  A
C2993      C3000   1.409       .  A
N2994      H3009   1.046       .  S
N2994      H3010   1.046       .  S
C2996      C2997   1.404       .  A
C2996      H3001   1.084       .  S
C2997      C2998   1.420       .  A
C2997      N3002   1.438       .  S
C2998      C2999   1.407       .  A
C2999      C3000   1.405       .  A
C2999      H3003   1.083       .  S
C3000      N3004   1.438       .  S
N3002      H3005   1.046       .  S
N3002      H3006   1.045       .  S
N3004      H3007   1.046       .  S
N3004      H3008   1.046       .  S
C3013      C3014   1.417       .  A
C3013      C3018   1.411       .  A
C3014      C3015   1.417       .  A
C3014      N3019   1.437       .  S
C3015      C3016   1.407       .  A
C3015      H3020   1.084       .  S
C3016      C3017   1.413       .  A
C3016      C3021   1.492       .  S
C3017      C3018   1.401       .  A
C3017      N3022   1.439       .  S
C3018      H3023   1.084       .  S
N3019      H3039   1.045       .  S
N3019      H3040   1.046       .  S
C3021      C3024   1.402       .  A
C3021      C3028   1.410       .  A
N3022      H3037   1.046       .  S
N3022      H3038   1.043       .  S
C3024      C3025   1.408       .  A
C3024      H3029   1.084       .  S
C3025      C3026   1.417       .  A
C3025      N3030   1.433       .  S
C3026      C3027   1.409       .  A
C3027      C3028   1.412       .  A
C3027      H3031   1.083       .  S
C3028      N3032   1.437       .  S
N3030      H3033   1.046       .  S
N3030      H3034   1.046       .  S
N3032      H3035   1.046       .  S
N3032      H3036   1.045       .  S
C3041      C3042   1.415       .  A
C3041      C3046   1.405       .  A
C3042      C3043   1.405       .  A
C3042      N3047   1.438       .  S
C3043      C3044   1.400       .  A
C3043      H3048   1.084       .  S
C3044      C3045   1.411       .  A
C3044      C3049   1.487       .  S
C3045      C3046   1.412       .  A
C3045      N3050   1.437       .  S
C3046      H3051   1.083       .  S
N3047      H3067   1.046       .  S
N3047      H3068   1.046       .  S
C3049      C3052   1.404       .  A
C3049      C3056   1.406       .  A
N3050      H3065   1.046       .  S
N3050      H3066   1.046       .  S
C3052      C3053   1.413       .  A
C3052      H3057   1.084       .  S
C3053      C3054   1.418       .  A
C3053      N3058   1.437       .  S
C3054      C3055   1.409       .  A
C3055      C3056   1.405       .  A
C3055      H3059   1.083       .  S
C3056      N3060   1.438       .  S
N3058      H3061   1.046       .  S
N3058      H3062   1.046       .  S
N3060      H3063   1.046       .  S
N3060      H3064   1.046       .  S
C3069      C3070   1.413       .  A
C3069      C3074   1.406       .  A
C3070      C3071   1.403       .  A
C3070      N3075   1.437       .  S
C3071      C3072   1.403       .  A
C3071      H3076   1.084       .  S
C3072      C3073   1.417       .  A
C3072      C3077   1.483       .  S
C3073      C3074   1.402       .  A
C3073      N3078   1.439       .  S
C3074      H3079   1.084       .  S
N3075      H3095   1.046       .  S
N3075      H3096   1.046       .  S
C3077      C3080   1.400       .  A
C3077      C3084   1.410       .  A
N3078      H3093   1.046       .  S
N3078      H3094   1.043       .  S
C3080      C3081   1.401   1_565  A
C3080      H3085   1.084       .  S
C3081      C3082   1.416       .  A
C3081      N3086   1.433       .  S
C3082      C3083   1.407       .  A
C3083      C3084   1.406   1_545  A
C3083      H3087   1.083       .  S
C3084      N3088   1.438       .  S
N3086      H3089   1.046       .  S
N3086      H3090   1.046       .  S
N3088      H3091   1.046       .  S
N3088      H3092   1.046       .  S
