geometry optimzed in LAMMPS
_audit_creation_date              2020-11-30 
_audit_creation_method            'lammps2cif' 
_symmetry_space_group_name_H-M    'P1' 
_symmetry_Int_Tables_number       1 
_symmetry_cell_setting            triclinic 
loop_ 
_symmetry_equiv_pos_as_xyz 
  x,y,z 
_cell_length_a                    27.88761235064092 
_cell_length_b                    31.329185074048596 
_cell_length_c                    51.11597388162093 
_cell_angle_alpha                 88.18179158263784 
_cell_angle_beta                  89.23746202133393 
_cell_angle_gamma                 89.88512596771572 
loop_ 
_atom_site_label 
_atom_site_type_symbol 
_atom_site_fract_x 
_atom_site_fract_y 
_atom_site_fract_z 
_atom_site_charge 
C1          C  0.83947617  0.40720957  0.33262865     0.41570
N2          N  0.80197335  0.37393541  0.30305163     0.00460
C3          C  0.78524634  0.40445210  0.16946313    -0.07410
H4          H  0.68239050  0.50372013  0.22167084     0.05960
C5          C  0.58601677  0.38770165  0.25774935    -0.07760
Co6        Co  0.82045840  0.40427838  0.24826827     0.74180
N7          N  0.73600590  0.45693751  0.23190030    -0.26940
Co8        Co  0.71185844  0.40281643  0.21404427     0.74070
C9          C  0.57705986  0.43040634  0.24611996     0.41680
N10         N  0.67154320  0.32784978  0.29415009     0.00080
N11         N  0.64617381  0.40800806  0.23345121     0.00190
N12         N  0.85496670  0.41031692  0.19104014    -0.47790
H13         H  0.87411381  0.45266740  0.30115657     0.05940
N14         N  0.77644247  0.45841058  0.24513029     0.00470
N15         N  0.68828836  0.34623113  0.19761386     0.00210
C16         C  0.66631991  0.29779783  0.17148386     0.41820
N17         N  0.71311570  0.32630912  0.30615421    -0.26400
C18         C  0.90366473  0.33808949  0.24161423    -0.07320
N19         N  0.81053100  0.37438279  0.32821491    -0.47500
N20         N  0.68597271  0.33720832  0.17245227    -0.47730
C21         C  0.91298208  0.29454092  0.25148702     0.41590
N22         N  0.81867862  0.40185310  0.20740980     0.00460
N23         N  0.75286391  0.26632155  0.26984256    -0.26420
N24         N  0.82281907  0.40524012  0.28951404    -0.26910
N25         N  0.71161345  0.26529614  0.25765502     0.00100
H26         H  0.80700897  0.21957851  0.27895056     0.05990
H27         H  0.64064328  0.25370213  0.20582201     0.06020
N28         N  0.77747086  0.39943603  0.19513698    -0.26960
N29         N  0.62972196  0.37666539  0.24878732    -0.26570
N30         N  0.84372195  0.31505203  0.26547914     0.00460
C31         C  0.74736398  0.52148685  0.24615084     0.41860
C32         C  0.70611386  0.33523422  0.33127658    -0.07830
N33         N  0.67122650  0.31521536  0.21311093    -0.26570
H34         H  0.56315407  0.36791287  0.27032911     0.06010
N35         N  0.78506475  0.49704514  0.25374279    -0.47800
H36         H  0.73372612  0.33839763  0.34569842     0.05990
C37         C  0.73983697  0.20204246  0.25609957     0.41690
C38         C  0.84881436  0.42768104  0.30652765    -0.07320
Co39       Co  0.77804380  0.31984412  0.28627571     0.73820
N40         N  0.63585523  0.33940676  0.30990866    -0.47510
C41         C  0.83658765  0.41196877  0.16665248     0.41960
N42         N  0.87435398  0.28253059  0.26624334    -0.47500
Co43       Co  0.66985635  0.32058559  0.25363248     0.73890
C44         C  0.65639732  0.28329102  0.19843509    -0.07830
C45         C  0.71516307  0.49521645  0.23164715    -0.07390
N46         N  0.86008683  0.34786893  0.25117645    -0.26920
N47         N  0.61595751  0.44059402  0.23126905    -0.47680
H48         H  0.75728447  0.40850964  0.15514105     0.05970
C49         C  0.77316414  0.22791514  0.27005328    -0.07810
Cl50       Cl  0.74521509  0.36198659  0.25043740    -0.50810
C51         C  0.65524153  0.34429022  0.33377093     0.41720
H52         H  0.92627576  0.35917763  0.22971768     0.05930
N53         N  0.70232172  0.22693516  0.24881384    -0.47520
C54         C  0.58526672  0.93843558  0.24475913     0.41570
N55         N  0.65044529  0.91205541  0.22955582     0.00460
C56         C  0.76770642  0.72822678  0.26738395    -0.07410
H57         H  0.73151126  0.83740940  0.34264077     0.05960
C58         C  0.85346606  0.92350978  0.30288506    -0.07760
Co59       Co  0.66896424  0.82396770  0.25008481     0.74180
N60         N  0.71116061  0.82876258  0.30267171    -0.26940
Co61       Co  0.77570587  0.82036564  0.28289282     0.74070
C62         C  0.84274925  0.90342300  0.32901059     0.41680
N63         N  0.78149577  0.95859022  0.24089406     0.00080
N64         N  0.80173630  0.87354507  0.29941687     0.00190
N65         N  0.69589093  0.72836367  0.24714030    -0.47790
H66         H  0.56774277  0.87642241  0.26838090     0.05940
N67         N  0.66996098  0.83219375  0.29043494     0.00470
N68         N  0.84054056  0.81351267  0.26221780     0.00210
C69         C  0.90782013  0.78976328  0.24808591     0.41820
N70         N  0.74179699  0.95853035  0.22695418    -0.26400
C71         C  0.66127001  0.78319017  0.19619535    -0.07320
N72         N  0.62337422  0.94689601  0.22894941    -0.47500
N73         N  0.86944412  0.77996591  0.26345834    -0.47730
C74         C  0.67610275  0.79412321  0.16940809     0.41590
N75         N  0.70731922  0.76694899  0.25497418     0.00460
N76         N  0.78031160  0.90040990  0.19056381    -0.26420
N77         N  0.63248502  0.88130769  0.24481753    -0.26910
N78         N  0.82142998  0.90278364  0.20296151     0.00100
H79         H  0.75765033  0.92099486  0.15244532     0.05990
H80         H  0.92371208  0.85295678  0.22503408     0.06020
N81         N  0.74889583  0.76720566  0.26678149    -0.26960
N82         N  0.82506874  0.90338490  0.28581914    -0.26570
N83         N  0.69069918  0.84714236  0.19395181     0.00460
C84         C  0.65341759  0.84640568  0.33024955     0.41860
C85         C  0.72442093  0.99805495  0.22496326    -0.07830
N86         N  0.85808030  0.84501010  0.24720080    -0.26570
H87         H  0.88102318  0.94651446  0.29751828     0.06010
N88         N  0.63429485  0.84391755  0.30615505    -0.47800
H89         H  0.69278528  0.00761532  0.21425036     0.05990
C90         C  0.83646682  0.92629375  0.16346554     0.41690
C91         C  0.59081519  0.89472529  0.25506976    -0.07320
Co92       Co  0.71534501  0.90443259  0.20976432     0.73820
N93         N  0.79270509  0.99716563  0.24866979    -0.47510
C94         C  0.73291875  0.70269365  0.25421254     0.41960
N95         N  0.69382108  0.83450184  0.16937214    -0.47500
Co96       Co  0.82246909  0.90305220  0.24425102     0.73890
C97         C  0.90043970  0.83302000  0.23728079    -0.07830
C98         C  0.70402529  0.83615724  0.32798183    -0.07390
N99         N  0.67210688  0.81739957  0.20986943    -0.26920
N100        N  0.81075452  0.87300356  0.32455366    -0.47680
H101        H  0.80089188  0.71903690  0.27672492     0.05970
C102        C  0.78666254  0.91294088  0.16554808    -0.07810
Cl103      Cl  0.74578928  0.86303451  0.24666223    -0.50810
C104        C  0.75799185  0.02339603  0.23927916     0.41720
H105        H  0.64680558  0.75366132  0.20442363     0.05930
N106        N  0.85574367  0.91915154  0.18743818    -0.47520
C107        C  0.09102961  0.19858701  0.24833151     0.41570
N108        N  0.14195223  0.14683602  0.25045454     0.00460
C109        C  0.37069968  0.14710249  0.30138043    -0.07410
H110        H  0.33960211  0.26057275  0.21936545     0.05960
C111        C  0.30756496  0.13830668  0.16696971    -0.07760
Co112      Co  0.22967454  0.17165946  0.28033358     0.74180
N113        N  0.29923170  0.21681661  0.24481367    -0.26940
Co114      Co  0.33443878  0.15809127  0.24491805     0.74070
C115        C  0.33049270  0.18062936  0.16500879     0.41680
N116        N  0.21590545  0.08087175  0.19682592     0.00080
N117        N  0.32995812  0.15809178  0.20493458     0.00190
N118        N  0.30150177  0.15466219  0.32429261    -0.47790
H119        H  0.14166226  0.24328574  0.26958431     0.05940
N120        N  0.25833331  0.22080968  0.25765167     0.00470
N121        N  0.36827606  0.09830976  0.24415398     0.00210
C122        C  0.41754915  0.04562165  0.24631719     0.41820
N123        N  0.17497252  0.08299087  0.20997536    -0.26400
C124        C  0.19246568  0.12373364  0.32794949    -0.07320
N125        N  0.09783254  0.15692227  0.24282856    -0.47500
N126        N  0.41187254  0.08724661  0.25221433    -0.47730
C127        C  0.15639197  0.09162577  0.33350087     0.41590
N128        N  0.29528640  0.16244001  0.29894045     0.00460
N129        N  0.21221324  0.02732012  0.25157787    -0.26420
N130        N  0.16370801  0.17900560  0.26148469    -0.26910
N131        N  0.25252287  0.02338892  0.23783307     0.00100
H132        H  0.16973238  0.98147640  0.27438570     0.05990
H133        H  0.36633614  0.00235894  0.22444506     0.06020
N134        N  0.33503698  0.15726294  0.28519708    -0.26960
N135        N  0.30857610  0.12713168  0.19269131    -0.26570
N136        N  0.17602793  0.09112263  0.29243554     0.00460
C137        C  0.26764364  0.28109819  0.23774420     0.41860
C138        C  0.13920645  0.07651961  0.19302163    -0.07830
N139        N  0.34633880  0.06685013  0.23275099    -0.26570
H140        H  0.29173209  0.11985548  0.15181394     0.06010
N141        N  0.23831851  0.25864944  0.25401686    -0.47800
H142        H  0.10166978  0.07319661  0.19826735     0.05990
C143        C  0.24048253  0.96026114  0.25458089     0.41690
C144        C  0.13459289  0.21309625  0.26073920    -0.07320
Co145      Co  0.17509978  0.08638261  0.25114424     0.73820
N146        N  0.21044357  0.07314688  0.17189346    -0.47510
C147        C  0.34832697  0.14489407  0.32737093     0.41960
N148        N  0.14659602  0.07324752  0.31036443    -0.47500
Co149      Co  0.28098347  0.07420242  0.21469439     0.73890
C150        C  0.37435169  0.03232006  0.23333821    -0.07830
C151        C  0.30887629  0.25399701  0.23196146    -0.07390
N152        N  0.20073098  0.12238278  0.30237504    -0.26920
N153        N  0.34351210  0.19016181  0.18929430    -0.47680
H154        H  0.40664188  0.13877283  0.29524578     0.05970
C155        C  0.20137122  0.98879487  0.26263754    -0.07810
Cl156      Cl  0.25491859  0.12239450  0.24781612    -0.50810
C157        C  0.16328856  0.07004317  0.16758662     0.41720
H158        H  0.20317587  0.14959070  0.34010701     0.05930
N159        N  0.27032209  0.98413238  0.23917369    -0.47520
C160        C  0.40509572  0.53481288  0.25411225     0.41570
N161        N  0.35635926  0.58833441  0.25529187     0.00460
C162        C  0.12414747  0.59115716  0.30406258    -0.07410
H163        H  0.16155052  0.47981459  0.22292375     0.05960
C164        C  0.20139402  0.60099467  0.16903403    -0.07760
Co165      Co  0.26555506  0.56342185  0.28455039     0.74180
N166        N  0.19904696  0.52081176  0.24912804    -0.26940
Co167      Co  0.16505550  0.58013603  0.24734408     0.74070
C168        C  0.17799373  0.55893818  0.16782820     0.41680
N169        N  0.29028425  0.65768380  0.19900794     0.00080
N170        N  0.17360862  0.58108005  0.20711032     0.00190
N171        N  0.19095455  0.57718619  0.32726537    -0.47790
H172        H  0.35105625  0.49110861  0.27640137     0.05940
N173        N  0.23858798  0.51547597  0.26260577     0.00470
N174        N  0.13286812  0.63996371  0.24448848     0.00210
C175        C  0.08278456  0.69191122  0.24376314     0.41820
N176        N  0.32941441  0.65443347  0.21317180    -0.26400
C177        C  0.29575373  0.61189439  0.33159859    -0.07320
N178        N  0.40009339  0.57690523  0.24738470    -0.47500
N179        N  0.08871849  0.65067257  0.25172791    -0.47730
C180        C  0.32911470  0.64565097  0.33694634     0.41590
N181        N  0.19857175  0.57202998  0.30199626     0.00460
N182        N  0.28805195  0.70891892  0.25248942    -0.26420
N183        N  0.33292228  0.55634394  0.26703434    -0.26910
N184        N  0.24940942  0.71397164  0.23788323     0.00100
H185        H  0.32780413  0.75276250  0.27584828     0.05990
H186        H  0.13606576  0.73571188  0.22090592     0.06020
N187        N  0.16020555  0.58015611  0.28792889    -0.26960
N188        N  0.19716011  0.61192030  0.19434642    -0.26570
N189        N  0.31781790  0.64378208  0.29529602     0.00460
C190        C  0.23109170  0.45714407  0.24272317     0.41860
C191        C  0.36756852  0.66141615  0.19715274    -0.07830
N192        N  0.15558507  0.67141639  0.23199425    -0.26570
H193        H  0.21980973  0.61934465  0.15370677     0.06010
N194        N  0.25894681  0.47794179  0.25933672    -0.47800
H195        H  0.40431729  0.66415920  0.20337025     0.05990
C196        C  0.25984306  0.77584035  0.25420330     0.41690
C197        C  0.36059529  0.52148971  0.26718380    -0.07320
Co198      Co  0.32428260  0.64948687  0.25413736     0.73820
N199        N  0.29933064  0.66684545  0.17413292    -0.47510
C200        C  0.14482220  0.58910852  0.33024647     0.41960
N201        N  0.34257794  0.66356462  0.31337642    -0.47500
Co202      Co  0.22294306  0.66415084  0.21537223     0.73890
C203        C  0.12709529  0.70564128  0.23071218    -0.07830
C204        C  0.19060156  0.48490248  0.23625120    -0.07390
N205        N  0.29241842  0.61205205  0.30573288    -0.26920
N206        N  0.16163711  0.54937300  0.19214096    -0.47680
H207        H  0.08885742  0.60157715  0.29807250     0.05970
C208        C  0.29779674  0.74656438  0.26334575    -0.07810
Cl209      Cl  0.24471028  0.61464122  0.25034180    -0.50810
C210        C  0.34713069  0.66964964  0.17110514     0.41720
H211        H  0.28290785  0.58653627  0.34473730     0.05930
N212        N  0.23161735  0.75323255  0.23846701    -0.47520
C213        C  0.61072609  0.21420233  0.07724913     0.41570
N214        N  0.55926887  0.19658370  0.04856887     0.00460
C215        C  0.56749330  0.22529137  0.91555412    -0.07410
H216        H  0.63030305  0.36032430  0.97333841     0.05960
C217        C  0.46744964  0.36993787  0.01035664    -0.07760
Co218      Co  0.59820297  0.20272768  0.99411252     0.74180
N219        N  0.61064754  0.29433478  0.98000796    -0.26940
Co220      Co  0.54530977  0.28892501  0.96180449     0.74070
C221        C  0.50687254  0.39868720  0.00254714     0.41680
N222        N  0.44020068  0.26826667  0.03939367     0.00080
N223        N  0.51752033  0.33821220  0.98462070     0.00190
N224        N  0.60383193  0.17195040  0.93849612    -0.47790
H225        H  0.66993553  0.22371380  0.04582115     0.05940
N226        N  0.63168621  0.26187245  0.99212081     0.00470
N227        N  0.47978620  0.28625122  0.94376399     0.00210
C228        C  0.42654147  0.31275428  0.91789565     0.41820
N229        N  0.46432538  0.23670905  0.05061243    -0.26400
C230        C  0.57261954  0.10717835  0.98355393    -0.07320
N231        N  0.56456295  0.20307421  0.07383722    -0.47500
N232        N  0.47348859  0.30394263  0.92026193    -0.47730
C233        C  0.53159739  0.07977168  0.99027364     0.41590
N234        N  0.59293268  0.20418817  0.95357099     0.00460
N235        N  0.42863843  0.18194998  0.01090622    -0.26420
N236        N  0.59917190  0.20316803  0.03492755    -0.26910
N237        N  0.40727881  0.21425858  0.99846741     0.00100
H238        H  0.40741854  0.11755274  0.02085109     0.05990
H239        H  0.36778671  0.30499996  0.94981926     0.06020
N240        N  0.57141523  0.23605822  0.94083580    -0.26960
N241        N  0.47739669  0.33314088  0.99854398    -0.26570
N242        N  0.52261103  0.13943113  0.00877080     0.00460
C243        C  0.67945173  0.31445101  0.99656521     0.41860
C244        C  0.45417820  0.23471568  0.07607707    -0.07830
N245        N  0.43949345  0.28296883  0.95755134    -0.26570
H246        H  0.43651386  0.37581697  0.02271173     0.06010
N247        N  0.67360679  0.27229361  0.00204294    -0.47800
H248        H  0.46372686  0.20831793  0.08917312     0.05990
C249        C  0.35708846  0.16212300  0.99727299     0.41690
C250        C  0.63388145  0.21426833  0.05139684    -0.07320
Co251      Co  0.49394437  0.18818487  0.02994500     0.73820
N252        N  0.40983131  0.28595310  0.05612780    -0.47510
C253        C  0.58889239  0.18231207  0.91417643     0.41960
N254        N  0.50252500  0.10173728  0.00613283    -0.47500
Co255      Co  0.43998622  0.27493424  0.99843183     0.73890
C256        C  0.40358792  0.29835150  0.94265152    -0.07830
C257        C  0.63808919  0.32902706  0.98177926    -0.07390
N258        N  0.56322933  0.14388529  0.99561154    -0.26920
N259        N  0.53612111  0.37684499  0.98651774    -0.47680
H260        H  0.54997362  0.24421480  0.90039871     0.05970
C261        C  0.39996501  0.14782140  0.01098251    -0.07810
Cl262      Cl  0.51898863  0.23882702  0.99591815    -0.50810
C263        C  0.41755528  0.26685140  0.07989472     0.41720
H264        H  0.60299233  0.10115197  0.97082738     0.05930
N265        N  0.36388856  0.20389852  0.99026999    -0.47520
C266        C  0.42112571  0.76229422  0.07999181     0.41570
N267        N  0.47251950  0.78166534  0.05032216     0.00460
C268        C  0.45342277  0.75603223  0.91827262    -0.07410
H269        H  0.39878555  0.62353834  0.97492452     0.05960
C270        C  0.56546240  0.60965714  0.01260696    -0.07760
Co271      Co  0.43208111  0.77764947  0.99708324     0.74180
N272        N  0.42014368  0.68667076  0.98478549    -0.26940
Co273      Co  0.48508767  0.69381705  0.96545331     0.74070
C274        C  0.52604629  0.58134755  0.00563119     0.41680
N275        N  0.59209599  0.71148656  0.04077477     0.00080
N276        N  0.51408217  0.64375258  0.98835907     0.00190
N277        N  0.41795617  0.80789407  0.94152325    -0.47790
H278        H  0.36182233  0.75562347  0.04934288     0.05940
N279        N  0.39867519  0.71798316  0.99689400     0.00470
N280        N  0.54984143  0.69875082  0.94578631     0.00210
C281        C  0.60147136  0.67535011  0.91805636     0.41820
N282        N  0.56724446  0.74242262  0.05133100    -0.26400
C283        C  0.45643914  0.87431827  0.98407611    -0.07320
N284        N  0.46749203  0.77305169  0.07575383    -0.47500
N285        N  0.55482021  0.68401461  0.92197425    -0.47730
C286        C  0.49728089  0.90178880  0.98959261     0.41590
N287        N  0.43533382  0.77737465  0.95693258     0.00460
N288        N  0.60247290  0.79916776  0.00964739    -0.26420
N289        N  0.43242538  0.77622172  0.03752754    -0.26910
N290        N  0.62426901  0.76729629  0.99790622     0.00100
H291        H  0.62407873  0.86320032  0.01804756     0.05990
H292        H  0.66210362  0.67947629  0.94819311     0.06020
N293        N  0.45628065  0.74634982  0.94411418    -0.26960
N294        N  0.55460115  0.64780784  0.00129460    -0.26570
N295        N  0.50766022  0.84084093  0.00849481     0.00460
C296        C  0.34775560  0.66650835  0.99815851     0.41860
C297        C  0.57590606  0.74355207  0.07673560    -0.07830
N298        N  0.59078494  0.70053754  0.95844754    -0.26570
H299        H  0.59723431  0.60248997  0.02384273     0.06010
N300        N  0.35459341  0.70755930  0.00489373    -0.47800
H301        H  0.56509444  0.76917588  0.08922832     0.05990
C302        C  0.67474910  0.81943283  0.99534899     0.41690
C303        C  0.39768259  0.76476734  0.05457876    -0.07320
Co304      Co  0.53730517  0.79148080  0.03012471     0.73820
N305        N  0.62196829  0.69351090  0.05803740    -0.47510
C306        C  0.42784752  0.79714037  0.91683957     0.41960
N307        N  0.52705786  0.87897210  0.00501658    -0.47500
Co308      Co  0.59165594  0.70639060  0.99955922     0.73890
C309        C  0.62575070  0.68658253  0.94233748    -0.07830
C310        C  0.39120707  0.65282780  0.98479858    -0.07390
N311        N  0.46668556  0.83680847  0.99636116    -0.26920
N312        N  0.49606839  0.60476254  0.99050106    -0.47680
H313        H  0.46684986  0.73664584  0.90265351     0.05970
C314        C  0.63122732  0.83338478  0.00865573    -0.07810
Cl315      Cl  0.51175607  0.74229979  0.99795696    -0.50810
C316        C  0.61237648  0.71161188  0.08141839     0.41720
H317        H  0.42546428  0.88096054  0.97210178     0.05930
N318        N  0.66827319  0.77779276  0.98963977    -0.47520
C319        C  0.10538977  0.97428075  0.07870145     0.41570
N320        N  0.05593920  0.95112289  0.05063236     0.00460
C321        C  0.06415780  0.97193131  0.91741769    -0.07410
H322        H  0.12849894  0.10929574  0.96653106     0.05960
C323        C  0.96518507  0.12253118  0.00966948    -0.07760
Co324      Co  0.09481510  0.95496794  0.99623986     0.74180
N325        N  0.10729103  0.04574941  0.97889218    -0.26940
Co326      Co  0.04080047  0.03828065  0.96210502     0.74070
C327        C  0.00461190  0.15065599  0.00088455     0.41680
N328        N  0.93845867  0.02301188  0.04167822     0.00080
N329        N  0.01349887  0.08923650  0.98374022     0.00190
N330        N  0.10136596  0.92073128  0.94175677    -0.47790
H331        H  0.16458724  0.98342125  0.04705026     0.05940
N332        N  0.12877768  0.01462240  0.99210125     0.00470
N333        N  0.97461109  0.03211322  0.94527654     0.00210
C334        C  0.91939368  0.04296721  0.91701660     0.41820
N335        N  0.96295434  0.99157422  0.05268643    -0.26400
C336        C  0.06825304  0.85847175  0.98766586    -0.07320
N337        N  0.06024014  0.96068768  0.07547487    -0.47500
N338        N  0.96707007  0.04031229  0.92019768    -0.47730
C339        C  0.02711183  0.83144534  0.99504236     0.41590
N340        N  0.08920139  0.95360396  0.95596325     0.00460
N341        N  0.92421716  0.93434892  0.01435954    -0.26420
N342        N  0.09568734  0.95801694  0.03691531    -0.26910
N343        N  0.90273218  0.96672491  0.00210242     0.00100
H344        H  0.90263538  0.86935453  0.02339220     0.05990
H345        H  0.86045527  0.03878981  0.94923969     0.06020
N346        N  0.06716936  0.98426551  0.94243556    -0.26960
N347        N  0.97399323  0.08510308  0.99830145    -0.26570
N348        N  0.01885564  0.89206029  0.01247118     0.00460
C349        C  0.17967219  0.06636647  0.99068035     0.41860
C350        C  0.95798294  0.99237161  0.07846865    -0.07830
N351        N  0.93464040  0.02971093  0.95933741    -0.26570
H352        H  0.93523071  0.12907378  0.02259153     0.06010
N353        N  0.17263610  0.02540189  0.99930283    -0.47800
H354        H  0.96961476  0.96717306  0.09192660     0.05990
C355        C  0.85264065  0.91466852  0.00016864     0.41690
C356        C  0.12939370  0.97218064  0.05305228    -0.07320
Co357      Co  0.99056223  0.94164831  0.03270479     0.73820
N358        N  0.91205501  0.04318485  0.05935955    -0.47510
C359        C  0.08670124  0.92932985  0.91720873     0.41960
N360        N  0.99847787  0.85435691  0.01057951    -0.47500
Co361      Co  0.93620995  0.02684251  0.00035147     0.73890
C362        C  0.89753837  0.03581139  0.94311566    -0.07830
C363        C  0.13631717  0.07970397  0.97709360    -0.07390
N364        N  0.05944721  0.89582850  0.99917688    -0.26920
N365        N  0.03281738  0.12776758  0.98484574    -0.47680
H366        H  0.04706357  0.98978623  0.90165521     0.05970
C367        C  0.89543547  0.90008679  0.01401062    -0.07810
Cl368      Cl  0.01552021  0.99054715  0.99780166    -0.50810
C369        C  0.92395467  0.02602949  0.08328014     0.41720
H370        H  0.09823284  0.85178749  0.97480091     0.05930
N371        N  0.85951713  0.95651464  0.99361920    -0.47520
C372        C  0.91098565  0.51250974  0.07908959     0.41570
N373        N  0.96426678  0.53302791  0.05078632     0.00460
C374        C  0.95547982  0.50695794  0.91830396    -0.07410
H375        H  0.90226128  0.37114237  0.97857288     0.05960
C376        C  0.06576234  0.36221187  0.01369616    -0.07760
Co377      Co  0.92814566  0.52863637  0.99663940     0.74180
N378        N  0.91992886  0.43687638  0.98485623    -0.26940
Co379      Co  0.98540420  0.44573465  0.96613409     0.74070
C380        C  0.02761099  0.33321770  0.00567009     0.41680
N381        N  0.08662748  0.46504708  0.04355168     0.00080
N382        N  0.01473926  0.39598786  0.98907894     0.00190
N383        N  0.91766856  0.55859776  0.94061595    -0.47790
H384        H  0.85405914  0.50652228  0.04714415     0.05940
N385        N  0.89706605  0.46819916  0.99626184     0.00470
N386        N  0.05110085  0.45392895  0.94793613     0.00210
C387        C  0.10626161  0.44261356  0.91933292     0.41820
N388        N  0.05998149  0.49511319  0.05386185    -0.26400
C389        C  0.95097896  0.62579527  0.98426329    -0.07320
N390        N  0.95742848  0.52388792  0.07602409    -0.47500
N391        N  0.05862857  0.44518029  0.92317180    -0.47730
C392        C  0.99067012  0.65388458  0.99079180     0.41590
N393        N  0.93403782  0.52824719  0.95651083     0.00460
N394        N  0.09595931  0.55300170  0.01329478    -0.26420
N395        N  0.92535625  0.52742896  0.03703089    -0.26910
N396        N  0.11901251  0.52187835  0.00159176     0.00100
H397        H  0.11517252  0.61706801  0.02262204     0.05990
H398        H  0.16532826  0.44757604  0.95038991     0.06020
N399        N  0.95634311  0.49741258  0.94423142    -0.26960
N400        N  0.05428726  0.40061050  0.00276243    -0.26570
N401        N  0.00098284  0.59302272  0.00982221     0.00460
C402        C  0.85024051  0.41431009  0.00088011     0.41860
C403        C  0.06874683  0.49733804  0.07923465    -0.07830
N404        N  0.09107148  0.45712963  0.96126567    -0.26570
H405        H  0.09703035  0.35534634  0.02540220     0.06010
N406        N  0.85447298  0.45630617  0.00571915    -0.47800
H407        H  0.05713455  0.52322960  0.09131956     0.05990
C408        C  0.16804357  0.57476541  0.00013241     0.41690
C409        C  0.88947695  0.51554677  0.05320435    -0.07320
Co410      Co  0.03004353  0.54393797  0.03216416     0.73820
N411        N  0.11782032  0.44929107  0.06086055    -0.47510
C412        C  0.92969261  0.54787592  0.91615712     0.41960
N413        N  0.01970533  0.63152431  0.00687733    -0.47500
Co414      Co  0.08892478  0.46056941  0.00231474     0.73890
C415        C  0.12819805  0.45051145  0.94474938    -0.07830
C416        C  0.89330873  0.40149538  0.98686271    -0.07390
N417        N  0.96120706  0.58836525  0.99664901    -0.26920
N418        N  0.99789679  0.35654692  0.99038001    -0.47680
H419        H  0.97081297  0.48782911  0.90307209     0.05970
C420        C  0.12382250  0.58766358  0.01312138    -0.07810
Cl421      Cl  0.00829363  0.49460465  0.99929340    -0.50810
C422        C  0.10747360  0.46757019  0.08408691     0.41720
H423        H  0.92077030  0.63203859  0.97165195     0.05930
N424        N  0.16276707  0.53338387  0.99374415    -0.47520
C425        C  0.65415105  0.09450698  0.82733331     0.41570
N426        N  0.70092378  0.12447746  0.79851429     0.00460
C427        C  0.72760683  0.09848995  0.66513252    -0.07410
H428        H  0.82534906  0.99840564  0.71971577     0.05960
C429        C  0.92160257  0.10725689  0.75477927    -0.07760
Co430      Co  0.68700581  0.09812613  0.74376687     0.74180
N431        N  0.77148059  0.04498505  0.72863666    -0.26940
Co432      Co  0.79815701  0.09979397  0.71013209     0.74070
C433        C  0.93032537  0.06565121  0.74302623     0.41680
N434        N  0.83430254  0.16559333  0.79045512     0.00080
N435        N  0.86282163  0.09143303  0.72977394     0.00190
N436        N  0.65679103  0.09359146  0.68679311    -0.47790
H437        H  0.62062641  0.05288186  0.79575120     0.05940
N438        N  0.73021817  0.04325787  0.74183023     0.00470
N439        N  0.82321510  0.15814140  0.69379804     0.00210
C440        C  0.83940963  0.21257806  0.66848632     0.41820
N441        N  0.79174259  0.16808609  0.80188252    -0.26400
C442        C  0.60675838  0.16694304  0.73542050    -0.07320
N443        N  0.68724829  0.12474673  0.82317943    -0.47500
N444        N  0.82191030  0.17217434  0.66900501    -0.47730
C445        C  0.59819780  0.20997178  0.74477152     0.41590
N446        N  0.69199286  0.10266994  0.70284809     0.00460
N447        N  0.75769494  0.23225560  0.76466561    -0.26420
N448        N  0.67971207  0.09503084  0.78506279    -0.26910
N449        N  0.80062700  0.23342820  0.75373328     0.00100
H450        H  0.70474943  0.27958049  0.77335885     0.05990
H451        H  0.86558414  0.25132537  0.70305242     0.06020
N452        N  0.73392312  0.10479932  0.69060204    -0.26960
N453        N  0.87895692  0.12052503  0.74541672    -0.26570
N454        N  0.66565236  0.18675104  0.75946064     0.00460
C455        C  0.75887950  0.98005283  0.74441224     0.41860
C456        C  0.79555818  0.15656075  0.82711313    -0.07830
N457        N  0.84046066  0.18692409  0.70946558    -0.26570
H458        H  0.94402934  0.12497212  0.76766208     0.06010
N459        N  0.72079752  0.00427309  0.75134207    -0.47800
H460        H  0.76597325  0.15354736  0.84085253     0.05990
C461        C  0.77516420  0.29775705  0.75204065     0.41690
C462        C  0.64805399  0.07485139  0.80157723    -0.07320
Co463      Co  0.72903098  0.17841930  0.78116895     0.73820
N464        N  0.86753177  0.15067357  0.80671797    -0.47510
C465        C  0.67637582  0.09062970  0.66255587     0.41960
N466        N  0.63603173  0.21995560  0.75969513    -0.47500
Co467      Co  0.84005928  0.17708739  0.75000200     0.73890
C468        C  0.85213396  0.22208558  0.69526689    -0.07830
C469        C  0.79198057  0.00665334  0.72930956    -0.07390
N470        N  0.64927973  0.15539991  0.74539010    -0.26920
N471        N  0.89226665  0.05835686  0.72774914    -0.47680
H472        H  0.75636800  0.09324120  0.65121020     0.05970
C473        C  0.73883424  0.27116327  0.76460208    -0.07810
Cl474      Cl  0.76343973  0.13810453  0.74618026    -0.50810
C475        C  0.84545362  0.14429242  0.83031137     0.41720
H476        H  0.58421090  0.14722152  0.72373934     0.05930
N477        N  0.81299094  0.27268328  0.74592484    -0.47520
C478        C  0.67787783  0.58827122  0.83244740     0.41570
N479        N  0.71450421  0.62294993  0.80134501     0.00460
C480        C  0.72800046  0.59726951  0.66738196    -0.07410
H481        H  0.82887834  0.49821501  0.71876374     0.05960
C482        C  0.92482787  0.60950051  0.75461484    -0.07760
Co483      Co  0.69316814  0.59736793  0.74699754     0.74180
N484        N  0.77637289  0.54504948  0.72960917    -0.26940
Co485      Co  0.80070585  0.60055410  0.71082801     0.74070
C486        C  0.93091739  0.56611963  0.74530057     0.41680
N487        N  0.84464504  0.66857719  0.78940047     0.00080
N488        N  0.86620338  0.59322224  0.72959680     0.00190
N489        N  0.65857863  0.59005885  0.69017667    -0.47790
H490        H  0.63978516  0.54625004  0.80249488     0.05940
N491        N  0.73616438  0.54304037  0.74366856     0.00470
N492        N  0.82351148  0.65929330  0.69373400     0.00210
C493        C  0.83657685  0.71390109  0.66799936     0.41820
N494        N  0.80366832  0.66979180  0.80250042    -0.26400
C495        C  0.61172330  0.66625183  0.74155259    -0.07320
N496        N  0.70760959  0.62059201  0.82676330    -0.47500
N497        N  0.82015284  0.67309961  0.66895634    -0.47730
C498        C  0.60345390  0.70858672  0.75222974     0.41590
N499        N  0.69399292  0.60154692  0.70561341     0.00460
N500        N  0.76306039  0.73294389  0.76662138    -0.26420
N501        N  0.69179338  0.59344908  0.78863970    -0.26910
N502        N  0.80445596  0.73515964  0.75402793     0.00100
H503        H  0.70976782  0.77904806  0.77717258     0.05990
H504        H  0.86442173  0.75334826  0.70184620     0.06020
N505        N  0.73515722  0.60467724  0.69262373    -0.26960
N506        N  0.88341815  0.62335459  0.74414554    -0.26570
N507        N  0.67234276  0.68510159  0.76458942     0.00460
C508        C  0.76423345  0.47964766  0.74486152     0.41860
C509        C  0.81181590  0.65973926  0.82763686    -0.07830
N510        N  0.84112130  0.68864597  0.70885759    -0.26570
H511        H  0.94682623  0.62691687  0.76786041     0.06010
N512        N  0.72702134  0.50389833  0.75288993    -0.47800
H513        H  0.78484102  0.65602746  0.84289748     0.05990
C514        C  0.77683431  0.79875315  0.75330589     0.41690
C515        C  0.66599369  0.57034516  0.80676386    -0.07320
Co516      Co  0.73825192  0.67810099  0.78388406     0.73820
N517        N  0.88095224  0.65570491  0.80422404    -0.47510
C518        C  0.67724018  0.58707580  0.66561599     0.41960
N519        N  0.64249248  0.71788388  0.76632919    -0.47500
Co520      Co  0.84484233  0.67955955  0.74910972     0.73890
C521        C  0.85090178  0.72389216  0.69439634    -0.07830
C522        C  0.79654521  0.50651559  0.72935065    -0.07390
N523        N  0.65511025  0.65438574  0.75028743    -0.26920
N524        N  0.89331416  0.55840636  0.72983891    -0.47680
H525        H  0.75645766  0.59218015  0.65325192     0.05970
C526        C  0.74299513  0.77135409  0.76724003    -0.07810
Cl527      Cl  0.76903423  0.63890308  0.74758994    -0.50810
C528        C  0.86274373  0.65003292  0.82869465     0.41720
H529        H  0.58843421  0.64692906  0.73005617     0.05930
N530        N  0.81463156  0.77468786  0.74577255    -0.47520
C531        C  0.34794041  0.40427094  0.83329268     0.41570
N532        N  0.31683581  0.37446903  0.80050474     0.00460
C533        C  0.28595201  0.44452389  0.67253999    -0.07410
H534        H  0.19460409  0.52734840  0.73487987     0.05960
C535        C  0.09630856  0.40413250  0.76322408    -0.07760
Co536      Co  0.33061223  0.41937678  0.74887815     0.74180
N537        N  0.24647221  0.47685490  0.74012624    -0.26940
Co538      Co  0.21923524  0.42705952  0.71833393     0.74070
C539        C  0.08939330  0.44948588  0.75588405     0.41680
N540        N  0.18496618  0.33373429  0.79200826     0.00080
N541        N  0.15670464  0.42809407  0.74038910     0.00190
N542        N  0.35807877  0.44547895  0.69206123    -0.47790
H543        H  0.37821341  0.45942001  0.80665872     0.05940
N544        N  0.28845431  0.47471570  0.75190059     0.00470
N545        N  0.19231987  0.37471292  0.69769721     0.00210
C546        C  0.16644181  0.33092077  0.66956382     0.41820
N547        N  0.22745757  0.32756222  0.80240434    -0.26400
C548        C  0.41373093  0.35430335  0.73596479    -0.07320
N549        N  0.32390861  0.37016136  0.82574248    -0.47500
N550        N  0.18712429  0.36987231  0.67204786    -0.47730
C551        C  0.42266158  0.30892436  0.74218669     0.41590
N552        N  0.32489995  0.42820103  0.70795186     0.00460
N553        N  0.26203402  0.27800313  0.75832325    -0.26420
N554        N  0.33504335  0.40982069  0.78991968    -0.26910
N555        N  0.21858925  0.28021322  0.74864990     0.00100
H556        H  0.31738291  0.23010463  0.75826685     0.05990
H557        H  0.14394090  0.28202573  0.70179123     0.06020
N558        N  0.28223831  0.42864581  0.69698271    -0.26960
N559        N  0.13963156  0.39402325  0.75302594    -0.26570
N560        N  0.35290717  0.32633651  0.75683523     0.00460
C561        C  0.26315293  0.53852058  0.75809819     0.41860
C562        C  0.22332280  0.33084645  0.82838559    -0.07830
N563        N  0.17599892  0.34143414  0.71152590    -0.26570
H564        H  0.07242782  0.38243564  0.77386380     0.06010
N565        N  0.30043314  0.51145952  0.76233242    -0.47800
H566        H  0.25258313  0.32959975  0.84197114     0.05990
C567        C  0.24632862  0.21958827  0.73733424     0.41690
C568        C  0.35717790  0.43059004  0.80921988    -0.07320
Co569      Co  0.28999053  0.32583600  0.77957924     0.73820
N570        N  0.15188682  0.34374744  0.80962117    -0.47510
C571        C  0.33602915  0.45637556  0.66930043     0.41960
N572        N  0.38352714  0.29413614  0.75529714    -0.47500
Co573      Co  0.17861548  0.33680927  0.75160548     0.73890
C574        C  0.15918958  0.31248159  0.69564023    -0.07830
C575        C  0.22770126  0.51569013  0.74331078    -0.07390
N576        N  0.36955830  0.36208443  0.74569082    -0.26920
N577        N  0.12810349  0.46158566  0.74164024    -0.47680
H578        H  0.25568919  0.45399171  0.66067933     0.05970
C579        C  0.28227903  0.24103574  0.75227030    -0.07810
Cl580      Cl  0.25492445  0.37747410  0.74946035    -0.50810
C581        C  0.17356785  0.34282158  0.83316803     0.41720
H582        H  0.43744655  0.37786696  0.72687274     0.05930
N583        N  0.20712603  0.24513329  0.73622436    -0.47520
C584        C  0.16085933  0.84045310  0.83289464     0.41570
N585        N  0.20553363  0.87083003  0.80322808     0.00460
C586        C  0.22684216  0.83862464  0.67016969    -0.07410
H587        H  0.32562461  0.73813912  0.72837014     0.05960
C588        C  0.42297977  0.85640156  0.75656606    -0.07760
Co589      Co  0.18786786  0.84165081  0.74906290     0.74180
N590        N  0.27210817  0.78645823  0.73515171    -0.26940
Co591      Co  0.29757613  0.84113963  0.71465210     0.74070
C592        C  0.43201913  0.81377784  0.74645181     0.41680
N593        N  0.33757775  0.91609531  0.79114417     0.00080
N594        N  0.36283617  0.83604753  0.73384623     0.00190
N595        N  0.15575153  0.83511935  0.69176045    -0.47790
H596        H  0.12669402  0.79750088  0.80232971     0.05940
N597        N  0.23072940  0.78606407  0.74823850     0.00470
N598        N  0.32097150  0.89888081  0.69595818     0.00210
C599        C  0.33528440  0.95218305  0.66930305     0.41820
N600        N  0.29621582  0.91756302  0.80388987    -0.26400
C601        C  0.10611252  0.91118692  0.74114673    -0.07320
N602        N  0.19323286  0.87128285  0.82812027    -0.47500
N603        N  0.31855351  0.91139499  0.67086245    -0.47730
C604        C  0.09761821  0.95413615  0.75115894     0.41590
N605        N  0.19123189  0.84347701  0.70788895     0.00460
N606        N  0.25678317  0.97859536  0.76539005    -0.26420
N607        N  0.18378219  0.84082135  0.79039015    -0.26910
N608        N  0.29833762  0.97942519  0.75290831     0.00100
H609        H  0.20022872  0.02458355  0.77014999     0.05990
H610        H  0.36262085  0.99305381  0.70252618     0.06020
N611        N  0.23312255  0.84454728  0.69560999    -0.26960
N612        N  0.37929000  0.86740894  0.74770555    -0.26570
N613        N  0.16620484  0.93069689  0.76434620     0.00460
C614        C  0.25839497  0.72220393  0.75335594     0.41860
C615        C  0.30377080  0.90806655  0.82918710    -0.07830
N616        N  0.33802200  0.92918936  0.71053735    -0.26570
H617        H  0.44589324  0.87627163  0.76793471     0.06010
N618        N  0.22086485  0.74796371  0.75910306    -0.47800
H619        H  0.27626995  0.90410143  0.84415825     0.05990
C620        C  0.26722233  0.04109947  0.74536001     0.41690
C621        C  0.15379714  0.82024575  0.80751701    -0.07320
Co622      Co  0.23129999  0.92486320  0.78449091     0.73820
N623        N  0.37354014  0.90392504  0.80634136    -0.47510
C624        C  0.17556021  0.83206188  0.66748924     0.41960
N625        N  0.13638172  0.96357269  0.76539292    -0.47500
Co626      Co  0.33953472  0.92360810  0.75076713     0.73890
C627        C  0.34887896  0.96341100  0.69550945    -0.07830
C628        C  0.29215823  0.74762543  0.73740109    -0.07390
N629        N  0.14940693  0.89937600  0.75036540    -0.26920
N630        N  0.39316631  0.80359215  0.73249890    -0.47680
H631        H  0.25560083  0.83379028  0.65618723     0.05970
C632        C  0.23487821  0.01619258  0.76211226    -0.07810
Cl633      Cl  0.26395218  0.88265955  0.74972729    -0.50810
C634        C  0.35488764  0.89880781  0.83070966     0.41720
H635        H  0.08277876  0.89146883  0.72992298     0.05930
N636        N  0.30632472  0.01676229  0.74065840    -0.47520
C637        C  0.59288358  0.93415780  0.42207819     0.41570
N638        N  0.57123525  0.98366252  0.44775234     0.00460
C639        C  0.54508274  0.97543788  0.58097092    -0.07410
H640        H  0.45180105  0.85481678  0.52892161     0.05960
C641        C  0.35455848  0.96793655  0.48948745    -0.07760
Co642      Co  0.58683693  0.95844813  0.50387019     0.74180
N643        N  0.50497329  0.90255390  0.51977789    -0.26940
Co644      Co  0.47665610  0.95570231  0.53581347     0.74070
C645        C  0.34634220  0.92479257  0.50056909     0.41680
N646        N  0.43893055  0.03569784  0.45583424     0.00080
N647        N  0.41327457  0.94852892  0.51455617     0.00190
N648        N  0.61634790  0.97965383  0.55955313    -0.47790
H649        H  0.61716335  0.89074895  0.45678395     0.05940
N650        N  0.54719397  0.90211819  0.50801301     0.00470
N651        N  0.44825529  0.00904206  0.55192576     0.00210
C652        C  0.40057532  0.03809904  0.57945762     0.41820
N653        N  0.48131871  0.03487644  0.44413546    -0.26400
C654        C  0.66846422  0.02714922  0.50814480    -0.07320
N655        N  0.57362121  0.97380176  0.42270135    -0.47500
N656        N  0.43411323  0.00802123  0.57653062    -0.47730
C657        C  0.67716484  0.06983593  0.49634825     0.41590
N658        N  0.58202816  0.96627093  0.54413740     0.00460
N659        N  0.51714155  0.09286985  0.48153714    -0.26420
N660        N  0.58779103  0.95295175  0.46344285    -0.26910
N661        N  0.47535741  0.09322234  0.49414175     0.00100
H662        H  0.57074827  0.14054427  0.47295485     0.05990
H663        H  0.36733031  0.08057455  0.54665895     0.06020
N664        N  0.53983479  0.96458706  0.55607607    -0.26960
N665        N  0.39671663  0.97989169  0.49930495    -0.26570
N666        N  0.60906098  0.04633158  0.48371568     0.00460
C667        C  0.52098912  0.83825024  0.50654724     0.41860
C668        C  0.47593662  0.04100995  0.41846140    -0.07830
N669        N  0.42667388  0.03871945  0.53758393    -0.26570
H670        H  0.33183208  0.98772019  0.47712482     0.06010
N671        N  0.55867878  0.86363945  0.49983017    -0.47800
H672        H  0.50531901  0.04633931  0.40475845     0.05990
C673        C  0.50289880  0.15645011  0.49666192     0.41690
C674        C  0.60243030  0.92044000  0.44906628    -0.07320
Co675      Co  0.54487011  0.03969267  0.46383527     0.73820
N676        N  0.40398769  0.04419605  0.43909389    -0.47510
C677        C  0.59571647  0.98592122  0.58322167     0.41960
N678        N  0.63878235  0.07923167  0.48139644    -0.47500
Co679      Co  0.43351332  0.03773506  0.49656505     0.73890
C680        C  0.39480693  0.05849688  0.55327643    -0.07830
C681        C  0.48572617  0.86381269  0.51989257    -0.07390
N682        N  0.62548660  0.01535627  0.49913002    -0.26920
N683        N  0.38411898  0.91520100  0.51595368    -0.47680
H684        H  0.51618466  0.97941984  0.59495384     0.05970
C685        C  0.53704058  0.13132701  0.48215702    -0.07810
Cl686      Cl  0.51039761  0.99794072  0.49998180    -0.50810
C687        C  0.42466524  0.04770562  0.41500974     0.41720
H688        H  0.69125406  0.00769356  0.52067050     0.05930
N689        N  0.46502030  0.13127297  0.50335002    -0.47520
C690        C  0.58647570  0.43447585  0.42258322     0.41570
N691        N  0.56923332  0.48324658  0.44946861     0.00460
C692        C  0.54963284  0.46958080  0.58328639    -0.07410
H693        H  0.45039299  0.35401178  0.53079136     0.05960
C694        C  0.35514572  0.47151167  0.49373522    -0.07760
Co695      Co  0.58742008  0.45568726  0.50507547     0.74180
N696        N  0.50441084  0.40103497  0.52147967    -0.26940
Co697      Co  0.47886237  0.45439420  0.53845489     0.74070
C698        C  0.34630803  0.42779839  0.50393344     0.41680
N699        N  0.43965411  0.53958070  0.45989776     0.00080
N700        N  0.41406823  0.45003103  0.51804028     0.00190
N701        N  0.61985062  0.47572301  0.56111418    -0.47790
H702        H  0.61201693  0.38842301  0.45549544     0.05940
N703        N  0.54626044  0.40007254  0.50931926     0.00470
N704        N  0.45454898  0.50838487  0.55534148     0.00210
C705        C  0.42213089  0.54512129  0.58553109     0.41820
N706        N  0.48130628  0.53823231  0.44736681    -0.26400
C707        C  0.67096945  0.52299860  0.50890416    -0.07320
N708        N  0.57017559  0.47488529  0.42421515    -0.47500
N709        N  0.44814082  0.51034820  0.58072221    -0.47730
C710        C  0.67950052  0.56598395  0.49745573     0.41590
N711        N  0.58501643  0.46280416  0.54575468     0.00460
N712        N  0.52163054  0.59289884  0.48500778    -0.26420
N713        N  0.58539920  0.45123438  0.46435510    -0.26910
N714        N  0.48056575  0.59397857  0.49823044     0.00100
H715        H  0.57533991  0.63993670  0.47506654     0.05990
H716        H  0.38888656  0.59181923  0.55471594     0.06020
N717        N  0.54330699  0.46049790  0.55816181    -0.26960
N718        N  0.39780813  0.48249322  0.50355271    -0.26570
N719        N  0.61090327  0.54338091  0.48537447     0.00460
C720        C  0.51843054  0.33677705  0.50761085     0.41860
C721        C  0.47511952  0.54967051  0.42223002    -0.07830
N722        N  0.43457828  0.54014723  0.54207401    -0.26570
H723        H  0.33276437  0.49195723  0.48157431     0.06010
N724        N  0.55650072  0.36159614  0.50072561    -0.47800
H725        H  0.50399538  0.55697287  0.40849767     0.05990
C726        C  0.50921251  0.65694300  0.49988178     0.41690
C727        C  0.59747358  0.41892687  0.44899300    -0.07320
Co728      Co  0.54600362  0.53941917  0.46642513     0.73820
N729        N  0.40483769  0.55351495  0.44439908    -0.47510
C730        C  0.60010169  0.48058365  0.58525061     0.41960
N731        N  0.64073240  0.57606373  0.48310711    -0.47500
Co732      Co  0.43702442  0.53966452  0.50088311     0.73890
C733        C  0.41174117  0.56484974  0.55954615    -0.07830
C734        C  0.48417654  0.36266513  0.52146718    -0.07390
N735        N  0.62747240  0.51180178  0.50025060    -0.26920
N736        N  0.38438176  0.41700958  0.51884730    -0.47680
H737        H  0.52143949  0.47233827  0.59779212     0.05970
C738        C  0.54228495  0.63112126  0.48511142    -0.07810
Cl739      Cl  0.51219468  0.49722156  0.50258870    -0.50810
C740        C  0.42448099  0.56038136  0.42026727     0.41720
H741        H  0.69396531  0.50318850  0.52110386     0.05930
N742        N  0.47126142  0.63232733  0.50723209    -0.47520
C743        C  0.08654750  0.17492590  0.42158915     0.41570
N744        N  0.07088660  0.22907995  0.44531023     0.00460
C745        C  0.04762287  0.22889126  0.57877739    -0.07410
H746        H  0.95357122  0.10581768  0.53067222     0.05960
C747        C  0.85603506  0.21939455  0.48837239    -0.07760
Co748      Co  0.08841704  0.20798382  0.50199752     0.74180
N749        N  0.00646996  0.15307577  0.51983939    -0.26940
Co750      Co  0.97891291  0.20782131  0.53430239     0.74070
C751        C  0.84724560  0.17679133  0.50034656     0.41680
N752        N  0.94091176  0.28780154  0.45273125     0.00080
N753        N  0.91513755  0.20044549  0.51328130     0.00190
N754        N  0.11893908  0.23364912  0.55729985    -0.47790
H755        H  0.11194654  0.13495688  0.45737141     0.05940
N756        N  0.04848031  0.15184917  0.50792000     0.00470
N757        N  0.95153663  0.26214796  0.54953149     0.00210
C758        C  0.90683562  0.29435774  0.57721369     0.41820
N759        N  0.98291375  0.28561757  0.44056782    -0.26400
C760        C  0.17047687  0.27586082  0.50491927    -0.07320
N761        N  0.06970600  0.21569054  0.42087527    -0.47500
N762        N  0.93871495  0.26290213  0.57432523    -0.47730
C763        C  0.17975257  0.31808696  0.49270785     0.41590
N764        N  0.08466522  0.21914112  0.54208338     0.00460
N765        N  0.02107357  0.34299616  0.47721608    -0.26420
N766        N  0.08748997  0.19944622  0.46181450    -0.26910
N767        N  0.97993477  0.34401615  0.49049401     0.00100
H768        H  0.07463346  0.39026481  0.46742756     0.05990
H769        H  0.87385185  0.33643021  0.54407107     0.06020
N770        N  0.04249909  0.21738020  0.55408142    -0.26960
N771        N  0.89878821  0.23139913  0.49755898    -0.26570
N772        N  0.11205419  0.29420455  0.47956891     0.00460
C773        C  0.02284730  0.08740678  0.50882142     0.41860
C774        C  0.97810428  0.29917222  0.41563815    -0.07830
N775        N  0.93051238  0.29171875  0.53489960    -0.26570
H776        H  0.83315869  0.23888835  0.47592047     0.06010
N777        N  0.05979757  0.11274672  0.50074632    -0.47800
H778        H  0.00789113  0.30734715  0.40268812     0.05990
C779        C  0.00765787  0.40758531  0.49173055     0.41690
C780        C  0.09867361  0.16450305  0.44868093    -0.07320
Co781      Co  0.04709920  0.28790151  0.46015890     0.73820
N782        N  0.90756413  0.30453781  0.43719055    -0.47510
C783        C  0.09797701  0.24008710  0.58089333     0.41960
N784        N  0.14189907  0.32709858  0.47722479    -0.47500
Co785      Co  0.93673744  0.28923357  0.49378833     0.73890
C786        C  0.90035100  0.31339126  0.55066686    -0.07830
C787        C  0.98761503  0.11405953  0.52151715    -0.07390
N788        N  0.12782530  0.26387472  0.49563297    -0.26920
N789        N  0.88539809  0.16755420  0.51553799    -0.47680
H790        H  0.01873658  0.23288357  0.59276711     0.05970
C791        C  0.04100114  0.38168173  0.47692665    -0.07810
Cl792      Cl  0.01258713  0.24821187  0.49741738    -0.50810
C793        C  0.92826902  0.31257834  0.41342586     0.41720
H794        H  0.19231568  0.25708408  0.51831172     0.05930
N795        N  0.97048340  0.38234193  0.49953315    -0.47520
C796        C  0.09276816  0.67985602  0.42257563     0.41570
N797        N  0.07132983  0.73081371  0.44717435     0.00460
C798        C  0.04302090  0.72814291  0.58057288    -0.07410
H799        H  0.95291875  0.60457815  0.53139450     0.05960
C800        C  0.85509522  0.71762301  0.48804616    -0.07760
Co801      Co  0.08651792  0.70840517  0.50382722     0.74180
N802        N  0.00496867  0.65274971  0.52076516    -0.26940
Co803      Co  0.97629582  0.70762274  0.53499145     0.74070
C804        C  0.84710108  0.67495368  0.50013222     0.41680
N805        N  0.94007494  0.78708078  0.45263210     0.00080
N806        N  0.91394388  0.69982210  0.51333697     0.00190
N807        N  0.11509672  0.73162923  0.55988750    -0.47790
H808        H  0.11719203  0.63807242  0.45786623     0.05940
N809        N  0.04718922  0.65204048  0.50902706     0.00470
N810        N  0.94792023  0.76208251  0.54969623     0.00210
C811        C  0.90257502  0.79479671  0.57680831     0.41820
N812        N  0.98266410  0.78522462  0.44109551    -0.26400
C813        C  0.16778898  0.77653341  0.50731446    -0.07320
N814        N  0.07349828  0.71950960  0.42240734    -0.47500
N815        N  0.93456598  0.76328584  0.57438856    -0.47730
C816        C  0.17711228  0.81850193  0.49484622     0.41590
N817        N  0.08113775  0.71850039  0.54408586     0.00460
N818        N  0.01844416  0.84312980  0.47805483    -0.26420
N819        N  0.08787655  0.70085263  0.46347828    -0.26910
N820        N  0.97676035  0.84420140  0.49073739     0.00100
H821        H  0.07191438  0.89028049  0.46816465     0.05990
H822        H  0.87046562  0.83645606  0.54324223     0.06020
N823        N  0.03861428  0.71723931  0.55565173    -0.26960
N824        N  0.89738670  0.73042745  0.49742397    -0.26570
N825        N  0.10933819  0.79499766  0.48201003     0.00460
C826        C  0.02300188  0.58718488  0.50989851     0.41860
C827        C  0.97880266  0.79768118  0.41590601    -0.07830
N828        N  0.92717303  0.79144935  0.53475725    -0.26570
H829        H  0.83202295  0.73660243  0.47541104     0.06010
N830        N  0.05951130  0.61311880  0.50198298    -0.47800
H831        H  0.00899694  0.80565752  0.40319732     0.05990
C832        C  0.00383697  0.90804561  0.49134175     0.41690
C833        C  0.10254365  0.66752046  0.44972815    -0.07320
Co834      Co  0.04573128  0.78840398  0.46170587     0.73820
N835        N  0.90712835  0.80264952  0.43637111    -0.47510
C836        C  0.09358079  0.73812558  0.58336691     0.41960
N837        N  0.13935771  0.82760075  0.47939658    -0.47500
Co838      Co  0.93440232  0.78879143  0.49376127     0.73890
C839        C  0.89670986  0.81342097  0.55015433    -0.07830
C840        C  0.98691748  0.61337818  0.52238146    -0.07390
N841        N  0.12506869  0.76469855  0.49813052    -0.26920
N842        N  0.88499421  0.66648293  0.51553588    -0.47680
H843        H  0.01371749  0.73190611  0.59432838     0.05970
C844        C  0.03801959  0.88186641  0.47742558    -0.07810
Cl845      Cl  0.01055184  0.74826363  0.49843326    -0.50810
C846        C  0.92879677  0.81000602  0.41273973     0.41720
H847        H  0.18993304  0.75751063  0.52042479     0.05930
N848        N  0.96652227  0.88284306  0.49910330    -0.47520
C849        C  0.04843541  0.47788693  0.48426392    -0.14230
C850        C  0.01222310  0.45332809  0.49681678     0.07920
C851        C  0.98036991  0.47288217  0.51415109    -0.14230
C852        C  0.98433265  0.51636890  0.51867803    -0.14230
C853        C  0.02017412  0.54102080  0.50587833     0.07920
C854        C  0.05239724  0.52138661  0.48879307    -0.14230
H855        H  0.07345379  0.46379877  0.47068662     0.11900
H856        H  0.95238179  0.45459016  0.52419650     0.11900
H857        H  0.95924214  0.53051332  0.53219515     0.11900
H858        H  0.08019780  0.53976161  0.47863749     0.11900
C859        C  0.97765328  0.97394225  0.51346248    -0.14230
C860        C  0.00847754  0.95392376  0.49583583     0.07920
C861        C  0.04441692  0.97800258  0.48265532    -0.14230
C862        C  0.04947949  0.02139911  0.48708397    -0.14230
C863        C  0.01860756  0.04142270  0.50467140     0.07920
C864        C  0.98271733  0.01735981  0.51789130    -0.14230
H865        H  0.94989513  0.95600577  0.52394764     0.11900
H866        H  0.06851299  0.96359465  0.46873385     0.11900
H867        H  0.07714640  0.03936213  0.47653329     0.11900
H868        H  0.95858998  0.03186521  0.53176407     0.11900
C869        C  0.30198263  0.35902149  0.51283064    -0.14230
C870        C  0.30357573  0.39996821  0.50070507     0.07920
C871        C  0.26398492  0.41374236  0.48589325    -0.14230
C872        C  0.22385031  0.38719736  0.48332525    -0.14230
C873        C  0.22229208  0.34627927  0.49553408     0.07920
C874        C  0.26188981  0.33258641  0.51032703    -0.14230
H875        H  0.33183902  0.34732415  0.52436463     0.11900
H876        H  0.26388953  0.44504212  0.47630610     0.11900
H877        H  0.19392600  0.39878291  0.47180915     0.11900
H878        H  0.26211384  0.30132625  0.51995754     0.11900
C879        C  0.72264948  0.63389408  0.48544922    -0.14230
C880        C  0.72241592  0.59372817  0.49862433     0.07920
C881        C  0.76348213  0.58058353  0.51225410    -0.14230
C882        C  0.80397689  0.60697573  0.51255328    -0.14230
C883        C  0.80426269  0.64704864  0.49923754     0.07920
C884        C  0.76311388  0.66021665  0.48571247    -0.14230
H885        H  0.69146790  0.64503535  0.47480787     0.11900
H886        H  0.76447143  0.54990433  0.52258842     0.11900
H887        H  0.83516772  0.59593657  0.52322258     0.11900
H888        H  0.76200130  0.69090416  0.47539702     0.11900
C889        C  0.30141538  0.85740843  0.51178259    -0.14230
C890        C  0.30322426  0.89748207  0.49861360     0.07920
C891        C  0.26324066  0.91127677  0.48419238    -0.14230
C892        C  0.22229551  0.88561476  0.48308576    -0.14230
C893        C  0.22043999  0.84562327  0.49636713     0.07920
C894        C  0.26046794  0.83179426  0.51071109    -0.14230
H895        H  0.33167730  0.84584674  0.52304690     0.11900
H896        H  0.26337586  0.94195194  0.47384711     0.11900
H897        H  0.19199634  0.89716196  0.47185223     0.11900
H898        H  0.26032806  0.80114438  0.52108996     0.11900
C899        C  0.55974607  0.76806344  0.49959875    -0.14230
C900        C  0.51816241  0.79209641  0.50364389     0.07920
C901        C  0.47361770  0.77145761  0.50659700    -0.14230
C902        C  0.47079378  0.72722615  0.50604271    -0.14230
C903        C  0.51237915  0.70315898  0.50220382     0.07920
C904        C  0.55688698  0.72375773  0.49894852    -0.14230
H905        H  0.59442063  0.78339851  0.49748725     0.11900
H906        H  0.44083289  0.78938497  0.50934936     0.11900
H907        H  0.43608693  0.71194695  0.50815938     0.11900
H908        H  0.58954402  0.70566872  0.49607683     0.11900
C909        C  0.55183428  0.22214312  0.49868604    -0.14230
C910        C  0.50671915  0.20227871  0.50059556     0.07920
C911        C  0.46553335  0.22685813  0.50456178    -0.14230
C912        C  0.46937659  0.27095455  0.50627266    -0.14230
C913        C  0.51449314  0.29082072  0.50422663     0.07920
C914        C  0.55567076  0.26621260  0.50036940    -0.14230
H915        H  0.58424945  0.20367853  0.49591675     0.11900
H916        H  0.43042773  0.21214067  0.50577547     0.11900
H917        H  0.43697833  0.28944584  0.50902012     0.11900
H918        H  0.59077792  0.28092310  0.49908321     0.11900
C919        C  0.72223226  0.13717647  0.48425004    -0.14230
C920        C  0.72053430  0.09731255  0.49774713     0.07920
C921        C  0.76081975  0.08397520  0.51207559    -0.14230
C922        C  0.80185004  0.10974663  0.51275926    -0.14230
C923        C  0.80364153  0.14952908  0.49916828     0.07920
C924        C  0.76327035  0.16294504  0.48492883    -0.14230
H925        H  0.69177993  0.14847918  0.47305383     0.11900
H926        H  0.76083134  0.05354068  0.52270197     0.11900
H927        H  0.83229183  0.09844229  0.52396569     0.11900
H928        H  0.76324266  0.19338777  0.47431354     0.11900
C929        C  0.32586025  0.96665241  0.62088450    -0.14230
C930        C  0.33925448  0.98057694  0.64553659     0.07920
C931        C  0.35992791  0.02144516  0.64720522    -0.14230
C932        C  0.37259082  0.04528593  0.62461576    -0.14230
C933        C  0.36427668  0.02913985  0.59992706     0.07920
C934        C  0.33787373  0.99100616  0.59824549    -0.14230
H935        H  0.30925555  0.93572023  0.61896095     0.11900
H936        H  0.36989000  0.03393561  0.66580496     0.11900
H937        H  0.39386867  0.07390988  0.62646784     0.11900
H938        H  0.33218661  0.97729929  0.57934560     0.11900
C939        C  0.10729509  0.79242370  0.64816495    -0.14230
C940        C  0.15321129  0.81029086  0.64542153     0.07920
C941        C  0.17930373  0.80426966  0.62203662    -0.14230
C942        C  0.16033898  0.78018253  0.60209540    -0.14230
C943        C  0.11466190  0.76192596  0.60495923     0.07920
C944        C  0.08824008  0.76845083  0.62816395    -0.14230
H945        H  0.08644663  0.79628202  0.66595587     0.11900
H946        H  0.21464474  0.81786964  0.61907595     0.11900
H947        H  0.18129256  0.77616180  0.58435207     0.11900
H948        H  0.05287575  0.75484858  0.63106059     0.11900
C949        C  0.39851123  0.50838125  0.65281267    -0.14230
C950        C  0.35436689  0.48805159  0.64950507     0.07920
C951        C  0.32740312  0.49860338  0.62708852    -0.14230
C952        C  0.34620804  0.52576955  0.60730103    -0.14230
C953        C  0.39258706  0.54227921  0.60939469     0.07920
C954        C  0.41727415  0.53550381  0.63299083    -0.14230
H955        H  0.41967973  0.50160859  0.67006405     0.11900
H956        H  0.29303461  0.48384568  0.62393797     0.11900
H957        H  0.32710925  0.52928885  0.58903475     0.11900
H958        H  0.45370661  0.54694746  0.63475172     0.11900
C959        C  0.09535106  0.25908812  0.62736151    -0.14230
C960        C  0.11830210  0.26332677  0.60290234     0.07920
C961        C  0.15711452  0.29187123  0.59981080    -0.14230
C962        C  0.17239945  0.31575008  0.62110726    -0.14230
C963        C  0.14919378  0.31086072  0.64561062     0.07920
C964        C  0.11031796  0.28258689  0.64826454    -0.14230
H965        H  0.06552101  0.23738589  0.63050271     0.11900
H966        H  0.17504548  0.29607877  0.58098673     0.11900
H967        H  0.20272970  0.33708962  0.61862801     0.11900
H968        H  0.09113158  0.27832519  0.66670464     0.11900
C969        C  0.30600926  0.60873110  0.75899461    -0.14230
C970        C  0.26333687  0.58523103  0.76150259     0.07920
C971        C  0.21964265  0.60722269  0.76416076    -0.14230
C972        C  0.21831485  0.65190684  0.76305271    -0.14230
C973        C  0.26056054  0.67543673  0.75863627     0.07920
C974        C  0.30457804  0.65347467  0.75729215    -0.14230
H975        H  0.34010890  0.59254403  0.75682539     0.11900
H976        H  0.18624654  0.58977564  0.76626765     0.11900
H977        H  0.18395628  0.66795010  0.76426093     0.11900
H978        H  0.33781167  0.67083296  0.75421154     0.11900
C979        C  0.29364007  0.15537704  0.72679788    -0.14230
C980        C  0.24861890  0.17421297  0.73131850     0.07920
C981        C  0.20828400  0.14825118  0.73529423    -0.14230
C982        C  0.21394941  0.10408640  0.73796901    -0.14230
C983        C  0.25991713  0.08561831  0.73644727     0.07920
C984        C  0.29924342  0.11121269  0.72921017    -0.14230
H985        H  0.32513773  0.17503556  0.72329845     0.11900
H986        H  0.17325749  0.16217492  0.73869667     0.11900
H987        H  0.18272629  0.08476726  0.74275251     0.11900
H988        H  0.33481592  0.09755888  0.72749188     0.11900
C989        C  0.61307539  0.53903483  0.64890565    -0.14230
C990        C  0.65621451  0.56133331  0.64463986     0.07920
C991        C  0.68119165  0.55614408  0.62078715    -0.14230
C992        C  0.66378540  0.52902101  0.60183407    -0.14230
C993        C  0.62072824  0.50666169  0.60613301     0.07920
C994        C  0.59559813  0.51198243  0.62991999    -0.14230
H995        H  0.59315805  0.54197190  0.66708752     0.11900
H996        H  0.71440300  0.57297656  0.61665559     0.11900
H997        H  0.68368926  0.52608670  0.58364305     0.11900
H998        H  0.56230792  0.49524708  0.63399508     0.11900
C999        C  0.82463734  0.72941901  0.61994600    -0.14230
C1000       C  0.84124551  0.74224768  0.64426398     0.07920
C1001       C  0.86583812  0.78135632  0.64542605    -0.14230
C1002       C  0.87882522  0.80424555  0.62249406    -0.14230
C1003       C  0.86697590  0.78885882  0.59800994     0.07920
C1004       C  0.83696663  0.75284596  0.59701490    -0.14230
H1005       H  0.80505412  0.69981014  0.61844060     0.11900
H1006       H  0.87864321  0.79271017  0.66380566     0.11900
H1007       H  0.90297318  0.83112819  0.62379816     0.11900
H1008       H  0.82851434  0.73960300  0.57830934     0.11900
C1009       C  0.01543300  0.54993937  0.75788765    -0.14230
C1010       C  0.96991047  0.53526124  0.75117405     0.07920
C1011       C  0.96261564  0.49103486  0.74903895    -0.14230
C1012       C  0.00071243  0.46215813  0.75271103    -0.14230
C1013       C  0.04681125  0.47730127  0.75790052     0.07920
C1014       C  0.05361891  0.52130898  0.76082881    -0.14230
H1015       H  0.02211637  0.58375221  0.75961058     0.11900
H1016       H  0.92768610  0.47890552  0.74402715     0.11900
H1017       H  0.99481039  0.42846794  0.74994526     0.11900
H1018       H  0.08903508  0.53371863  0.76457043     0.11900
C1019       C  0.55816976  0.77549393  0.76253765    -0.14230
C1020       C  0.55967898  0.73559832  0.75064863     0.07920
C1021       C  0.51880842  0.72166421  0.73764250    -0.14230
C1022       C  0.47743366  0.74701461  0.73653520    -0.14230
C1023       C  0.47591006  0.78695221  0.74834606     0.07920
C1024       C  0.51673185  0.80089701  0.76141575    -0.14230
H1025       H  0.58908491  0.78713413  0.77272582     0.11900
H1026       H  0.51859553  0.69114412  0.72834858     0.11900
H1027       H  0.44656631  0.73529895  0.72633578     0.11900
H1028       H  0.51681995  0.83144125  0.77069597     0.11900
C1029       C  0.67994242  0.05881446  0.61815224    -0.14230
C1030       C  0.65455096  0.06593468  0.64157487     0.07920
C1031       C  0.60984608  0.04615507  0.64571363    -0.14230
C1032       C  0.59124123  0.01938255  0.62702224    -0.14230
C1033       C  0.61681943  0.01199987  0.60371384     0.07920
C1034       C  0.66134405  0.03200386  0.59945814    -0.14230
H1035       H  0.71438872  0.07369244  0.61424735     0.11900
H1036       H  0.58958555  0.05071830  0.66362628     0.11900
H1037       H  0.55684385  0.00444756  0.63095343     0.11900
H1038       H  0.68160505  0.02731758  0.58155630     0.11900
C1039       C  0.82816268  0.22922915  0.62046930    -0.14230
C1040       C  0.84542762  0.24108849  0.64486892     0.07920
C1041       C  0.87154088  0.27935329  0.64622342    -0.14230
C1042       C  0.88491016  0.30242482  0.62338913    -0.14230
C1043       C  0.87192069  0.28812876  0.59878947     0.07920
C1044       C  0.84091877  0.25281832  0.59765086    -0.14230
H1045       H  0.80747172  0.20025879  0.61880491     0.11900
H1046       H  0.88504261  0.28982892  0.66467117     0.11900
H1047       H  0.90995041  0.32862864  0.62480534     0.11900
H1048       H  0.83165804  0.24027759  0.57887189     0.11900
C1049       C  0.97365303  0.99711592  0.73315102    -0.14230
C1050       C  0.97291265  0.03685402  0.74534521     0.07920
C1051       C  0.01342818  0.04882660  0.75938748    -0.14230
C1052       C  0.05366933  0.02196272  0.76107440    -0.14230
C1053       C  0.05451233  0.98227414  0.74886970     0.07920
C1054       C  0.01392915  0.97013610  0.73490328    -0.14230
H1055       H  0.94300472  0.98681883  0.72220816     0.11900
H1056       H  0.01427606  0.07908917  0.76897947     0.11900
H1057       H  0.08427906  0.03238768  0.77200157     0.11900
H1058       H  0.01322193  0.93986591  0.72531858     0.11900
C1059       C  0.80891198  0.91469293  0.74651114    -0.14230
C1060       C  0.76337286  0.93385420  0.74809336     0.07920
C1061       C  0.72246523  0.90842539  0.75110196    -0.14230
C1062       C  0.72699410  0.86420096  0.75216045    -0.14230
C1063       C  0.77250623  0.84504117  0.75042301     0.07920
C1064       C  0.81344375  0.87045758  0.74756084    -0.14230
H1065       H  0.84107044  0.93387463  0.74442478     0.11900
H1066       H  0.68707126  0.92266098  0.75198005     0.11900
H1067       H  0.69481060  0.84504853  0.75414602     0.11900
H1068       H  0.84880965  0.85619618  0.74656791     0.11900
C1069       C  0.81471428  0.36837923  0.74592259    -0.14230
C1070       C  0.77283763  0.34421779  0.74923499     0.07920
C1071       C  0.72821852  0.36483129  0.75140429    -0.14230
C1072       C  0.72553041  0.40910054  0.75074318    -0.14230
C1073       C  0.76732859  0.43326712  0.74750427     0.07920
C1074       C  0.81196275  0.41278393  0.74506744    -0.14230
H1075       H  0.84943062  0.35302517  0.74443209     0.11900
H1076       H  0.69523433  0.34686199  0.75355949     0.11900
H1077       H  0.69076189  0.42439174  0.75219749     0.11900
H1078       H  0.84472052  0.43106731  0.74264089     0.11900
C1079       C  0.55522865  0.28052787  0.74335797    -0.14230
C1080       C  0.55373697  0.23575980  0.74238348     0.07920
C1081       C  0.50911940  0.21564221  0.73996560    -0.14230
C1082       C  0.46672815  0.23967532  0.73942947    -0.14230
C1083       C  0.46810031  0.28442215  0.74049921     0.07920
C1084       C  0.51282428  0.30471575  0.74202349    -0.14230
H1085       H  0.58920800  0.29677705  0.74521005     0.11900
H1086       H  0.50681539  0.18120467  0.73937885     0.11900
H1087       H  0.43270217  0.22322711  0.73838495     0.11900
H1088       H  0.51488914  0.33910312  0.74318390     0.11900
C1089       C  0.87003402  0.63477103  0.87598104    -0.14230
C1090       C  0.88555332  0.62645888  0.85053261     0.07920
C1091       C  0.91782264  0.59267078  0.84641101    -0.14230
C1092       C  0.93289365  0.56658488  0.86764668    -0.14230
C1093       C  0.91622475  0.57458427  0.89309455     0.07920
C1094       C  0.88534623  0.60937395  0.89698704    -0.14230
H1095       H  0.84515333  0.66058899  0.87960845     0.11900
H1096       H  0.92969576  0.58542437  0.82678817     0.11900
H1097       H  0.95691036  0.54012468  0.86416108     0.11900
H1098       H  0.87196966  0.61661545  0.91632930     0.11900
C1099       C  0.09794801  0.41553719  0.87448214    -0.14230
C1100       C  0.12623463  0.41973598  0.89682542     0.07920
C1101       C  0.17009430  0.39789995  0.89833250    -0.14230
C1102       C  0.18495948  0.37184489  0.87798733    -0.14230
C1103       C  0.15636187  0.36740236  0.85571034     0.07920
C1104       C  0.11276557  0.38963906  0.85419419    -0.14230
H1105       H  0.06379434  0.43188802  0.87284469     0.11900
H1106       H  0.19227918  0.39998296  0.91545327     0.11900
H1107       H  0.21883331  0.35521916  0.87982942     0.11900
H1108       H  0.09019632  0.38731937  0.83722255     0.11900
C1109       C  0.92771724  0.07472613  0.87179562    -0.14230
C1110       C  0.89868011  0.06551871  0.89400582     0.07920
C1111       C  0.85194459  0.08184667  0.89489448    -0.14230
C1112       C  0.83502736  0.10786149  0.87434984    -0.14230
C1113       C  0.86432234  0.11781124  0.85233583     0.07920
C1114       C  0.91070713  0.10063007  0.85115910    -0.14230
H1115       H  0.96403208  0.06255946  0.87058255     0.11900
H1116       H  0.82879141  0.07558070  0.91172596     0.11900
H1117       H  0.79898934  0.12032148  0.87599621     0.11900
H1118       H  0.93388796  0.10733037  0.83436653     0.11900
C1119       C  0.07847262  0.90864139  0.87010638    -0.14230
C1120       C  0.09464055  0.89946304  0.89554865     0.07920
C1121       C  0.12189662  0.86211234  0.90012891    -0.14230
C1122       C  0.13740687  0.83737832  0.87933409    -0.14230
C1123       C  0.12531106  0.84895551  0.85358600     0.07920
C1124       C  0.09341756  0.88334483  0.84931279    -0.14230
H1125       H  0.05696553  0.93680171  0.86598641     0.11900
H1126       H  0.13441647  0.85369977  0.91958795     0.11900
H1127       H  0.16303773  0.81195241  0.88309904     0.11900
H1128       H  0.08481963  0.89377137  0.82950329     0.11900
C1129       C  0.96926820  0.77172351  0.99130031    -0.14230
C1130       C  0.01647154  0.78717433  0.98836998     0.07920
C1131       C  0.05338534  0.75900332  0.98174547    -0.14230
C1132       C  0.04397762  0.71534378  0.98057240    -0.14230
C1133       C  0.99738944  0.69963880  0.98524578     0.07920
C1134       C  0.95968759  0.72819672  0.98946412    -0.14230
H1135       H  0.94010147  0.79304479  0.99618762     0.11900
H1136       H  0.08994513  0.77019518  0.97935153     0.11900
H1137       H  0.07352384  0.69351455  0.97740704     0.11900
H1138       H  0.92367480  0.71656161  0.99340886     0.11900
C1139       C  0.97179017  0.22329982  0.01020028    -0.14230
C1140       C  0.01143063  0.19676844  0.00562376     0.07920
C1141       C  0.05742427  0.21521271  0.00387019    -0.14230
C1142       C  0.06344196  0.25951233  0.00585653    -0.14230
C1143       C  0.02339069  0.28619792  0.00882087     0.07920
C1144       C  0.97764114  0.26761031  0.01133443    -0.14230
H1145       H  0.93596319  0.21007793  0.01153044     0.11900
H1146       H  0.08862596  0.19542581  0.00042099     0.11900
H1147       H  0.09898134  0.27310119  0.00354510     0.11900
H1148       H  0.94616767  0.28759240  0.01347189     0.11900
C1149       C  0.58937993  0.64074691  0.87501970    -0.14230
C1150       C  0.61747075  0.64584523  0.89743592     0.07920
C1151       C  0.65936385  0.62137839  0.90015414    -0.14230
C1152       C  0.67475582  0.59510020  0.88000195    -0.14230
C1153       C  0.64909525  0.59311452  0.85653141     0.07920
C1154       C  0.60507425  0.61472852  0.85474123    -0.14230
H1155       H  0.55645523  0.65872263  0.87252103     0.11900
H1156       H  0.68123285  0.62367535  0.91737757     0.11900
H1157       H  0.70959250  0.57988962  0.88157659     0.11900
H1158       H  0.58546895  0.61526009  0.83658301     0.11900
C1159       C  0.37834692  0.85618803  0.89861228    -0.14230
C1160       C  0.41178470  0.82345695  0.89421303     0.07920
C1161       C  0.42900304  0.81726871  0.86869417    -0.14230
C1162       C  0.41233036  0.84326147  0.84786678    -0.14230
C1163       C  0.37775142  0.87504108  0.85241675     0.07920
C1164       C  0.36129442  0.88144332  0.87793626    -0.14230
H1165       H  0.36448321  0.86189052  0.91807862     0.11900
H1166       H  0.45502011  0.79246832  0.86487013     0.11900
H1167       H  0.42510051  0.83756984  0.82818055     0.11900
H1168       H  0.33470336  0.90573972  0.88187889     0.11900
C1169       C  0.25922018  0.66331471  0.00714147    -0.14230
C1170       C  0.30173893  0.64308321  0.99937308     0.07920
C1171       C  0.29977477  0.60041097  0.99163559    -0.14230
C1172       C  0.25623433  0.57853528  0.99144513    -0.14230
C1173       C  0.21370600  0.59869982  0.99916924     0.07920
C1174       C  0.21557631  0.64135903  0.00698982    -0.14230
H1175       H  0.25960819  0.69617745  0.01306518     0.11900
H1176       H  0.33185140  0.58363067  0.98571491     0.11900
H1177       H  0.25597586  0.54567732  0.98550271     0.11900
H1178       H  0.18340618  0.65795034  0.01297750     0.11900
C1179       C  0.76503386  0.82210205  0.99558011    -0.14230
C1180       C  0.72076952  0.84340131  0.99395638     0.07920
C1181       C  0.72048652  0.88836161  0.99304701    -0.14230
C1182       C  0.76339512  0.91152340  0.99410383    -0.14230
C1183       C  0.80752043  0.89025917  0.99676223     0.07920
C1184       C  0.80789856  0.84528444  0.99728007    -0.14230
H1185       H  0.76636234  0.78754615  0.99651379     0.11900
H1186       H  0.68690953  0.90568995  0.99175891     0.11900
H1187       H  0.76189736  0.94607375  0.99370981     0.11900
H1188       H  0.84137874  0.82795668  0.99916448     0.11900
C1189       C  0.61883057  0.11415742  0.89532454    -0.14230
C1190       C  0.59406267  0.15312545  0.89180738     0.07920
C1191       C  0.57738214  0.16428456  0.86670276    -0.14230
C1192       C  0.58945419  0.13917494  0.84524887    -0.14230
C1193       C  0.61905676  0.10286656  0.84840987     0.07920
C1194       C  0.63141432  0.08952029  0.87387087    -0.14230
H1195       H  0.63167879  0.10417005  0.91446626     0.11900
H1196       H  0.55773381  0.19373174  0.86332891     0.11900
H1197       H  0.58076429  0.15110740  0.82574679     0.11900
H1198       H  0.65544064  0.06264061  0.87688473     0.11900
C1199       C  0.43878344  0.35904970  0.87746099    -0.14230
C1200       C  0.40868663  0.34466421  0.89828305     0.07920
C1201       C  0.36215418  0.36141783  0.90011034    -0.14230
C1202       C  0.34475545  0.38884945  0.88030922    -0.14230
C1203       C  0.37323056  0.39965548  0.85816198     0.07920
C1204       C  0.42120710  0.38636906  0.85757290    -0.14230
H1205       H  0.47516994  0.34724894  0.87572018     0.11900
H1206       H  0.33828790  0.35170886  0.91605357     0.11900
H1207       H  0.30715433  0.39767403  0.88081358     0.11900
H1208       H  0.44336689  0.39295771  0.84035241     0.11900
C1209       C  0.27031251  0.15705983  0.98488564    -0.14230
C1210       C  0.31179135  0.13761837  0.99498132     0.07920
C1211       C  0.30934937  0.09450933  0.00365074    -0.14230
C1212       C  0.26645251  0.07155093  0.00247913    -0.14230
C1213       C  0.22496191  0.09097896  0.99244841     0.07920
C1214       C  0.22738446  0.13402345  0.98364225    -0.14230
H1215       H  0.27092692  0.19017264  0.97813336     0.11900
H1216       H  0.34054822  0.07823304  0.01142162     0.11900
H1217       H  0.26585854  0.03846903  0.00930279     0.11900
H1218       H  0.19608288  0.15016434  0.97587219     0.11900
C1219       C  0.56262825  0.50817095  0.00839361    -0.14230
C1220       C  0.52185695  0.53444415  0.00906739     0.07920
C1221       C  0.47622075  0.51542083  0.01005658    -0.14230
C1222       C  0.47133084  0.47097492  0.00954269    -0.14230
C1223       C  0.51197687  0.44485213  0.00717299     0.07920
C1224       C  0.55769267  0.46375773  0.00704286    -0.14230
H1225       H  0.59815362  0.52206757  0.00738955     0.11900
H1226       H  0.44424135  0.53508464  0.01052603     0.12380
H1227       H  0.43571740  0.45726528  0.00954575     0.11900
H1228       H  0.58958851  0.44420473  0.00528127     0.11900
C1229       C  0.47550452  0.01978493  0.98359822    -0.14230
C1230       C  0.52282534  0.03518372  0.98385578     0.07920
C1231       C  0.56114982  0.00663595  0.98146087    -0.14230
C1232       C  0.55233945  0.96281224  0.98149404    -0.14230
C1233       C  0.50512575  0.94722447  0.98321827     0.07920
C1234       C  0.46665885  0.97596889  0.98293850    -0.14230
H1235       H  0.44542935  0.04152541  0.98524561     0.11900
H1236       H  0.59783971  0.01787974  0.98164508     0.11900
H1237       H  0.58251023  0.94095967  0.98158276     0.11900
H1238       H  0.43005564  0.96454520  0.98434974     0.11900
C1239       C  0.76732471  0.31948398  0.00388453    -0.14230
C1240       C  0.72253650  0.33954952  0.00181756     0.07920
C1241       C  0.71966182  0.38426677  0.00264960    -0.14230
C1242       C  0.76127509  0.40873506  0.00409854    -0.14230
C1243       C  0.80628903  0.38879034  0.00416930     0.07920
C1244       C  0.80899718  0.34398356  0.00477324    -0.14230
H1245       H  0.77030712  0.28505003  0.00339051     0.11900
H1246       H  0.68533089  0.40038983  0.00145929     0.11900
H1247       H  0.75837537  0.44322079  0.00369136     0.11900
H1248       H  0.84341913  0.32791526  0.00514846     0.11900
C1249       C  0.43311023  0.73015033  0.12515487    -0.14230
C1250       C  0.40297812  0.73941703  0.10381270     0.07920
C1251       C  0.35569896  0.72437761  0.10469355    -0.14230
C1252       C  0.33886081  0.70043116  0.12621872    -0.14230
C1253       C  0.36851382  0.69137040  0.14770969     0.07920
C1254       C  0.41594631  0.70631828  0.14702175    -0.14230
H1255       H  0.46990741  0.74115792  0.12489474     0.11900
H1256       H  0.33140572  0.73084778  0.08873681     0.11900
H1257       H  0.30204270  0.68949844  0.12612278     0.11900
H1258       H  0.43946488  0.70010703  0.16338554     0.11900
C1259       C  0.14799526  0.49048328  0.15049510    -0.14230
C1260       C  0.17142031  0.52984672  0.14574506     0.07920
C1261       C  0.18468512  0.54149384  0.11992286    -0.14230
C1262       C  0.17052374  0.51624944  0.09914333    -0.14230
C1263       C  0.14261775  0.47924029  0.10388178     0.07920
C1264       C  0.13348394  0.46566324  0.12979296    -0.14230
H1265       H  0.13779508  0.48015394  0.17020808     0.11900
H1266       H  0.20303198  0.57136665  0.11563521     0.11900
H1267       H  0.17662328  0.52817996  0.07924598     0.11900
H1268       H  0.11087078  0.43813190  0.13396750     0.11900
C1269       C  0.40585035  0.62050935  0.35555939    -0.14230
C1270       C  0.36042773  0.63865225  0.35953529     0.07920
C1271       C  0.33843346  0.63434638  0.38435182    -0.14230
C1272       C  0.35961223  0.60950806  0.40423546    -0.14230
C1273       C  0.40334061  0.58861151  0.39968651     0.07920
C1274       C  0.42710382  0.59561070  0.37546105    -0.14230
H1275       H  0.42268908  0.62202235  0.33633314     0.11900
H1276       H  0.30271628  0.64699478  0.38757862     0.11900
H1277       H  0.34080121  0.60530407  0.42280367     0.11900
H1278       H  0.46095297  0.58013301  0.37133749     0.11900
C1279       C  0.09152137  0.64108182  0.35314110    -0.14230
C1280       C  0.12698716  0.60919050  0.35420082     0.07920
C1281       C  0.14941475  0.59956090  0.37808636    -0.14230
C1282       C  0.13739370  0.62191292  0.40041214    -0.14230
C1283       C  0.10325150  0.65486138  0.39919880     0.07920
C1284       C  0.08006132  0.66403996  0.37545187    -0.14230
H1285       H  0.07405243  0.64948866  0.33490033     0.11900
H1286       H  0.17707252  0.57528055  0.37936421     0.11900
H1287       H  0.15602897  0.61425028  0.41840207     0.11900
H1288       H  0.05341676  0.68918824  0.37409802     0.11900
C1289       C  0.36627838  0.24747275  0.14591894    -0.14230
C1290       C  0.34142222  0.20909150  0.14210139     0.07920
C1291       C  0.33136069  0.19736172  0.11652898    -0.14230
C1292       C  0.35017839  0.22135090  0.09520599    -0.14230
C1293       C  0.37971872  0.25689454  0.09927861     0.07920
C1294       C  0.38567318  0.27090776  0.12468433    -0.14230
H1295       H  0.37397461  0.25778315  0.16543328     0.11900
H1296       H  0.31193591  0.16827133  0.11301307     0.11900
H1297       H  0.34630260  0.20937281  0.07569800     0.11900
H1298       H  0.40924474  0.29747299  0.12828399     0.11900
C1299       C  0.17846655  0.04163057  0.12339345    -0.14230
C1300       C  0.14588270  0.04882090  0.14409954     0.07920
C1301       C  0.09952778  0.03188151  0.14291896    -0.14230
C1302       C  0.08654654  0.00730774  0.12170842    -0.14230
C1303       C  0.11969725  0.99930534  0.10135841     0.07920
C1304       C  0.16561684  0.01704292  0.10234775    -0.14230
H1305       H  0.21455578  0.05430556  0.12368818     0.11900
H1306       H  0.07377543  0.03669960  0.15857810     0.11900
H1307       H  0.05056171  0.99441986  0.12130978     0.11900
H1308       H  0.19182247  0.01178957  0.08698236     0.11900
C1309       C  0.29055549  0.89370227  0.25856582    -0.14230
C1310       C  0.24493108  0.91302054  0.25795974     0.07920
C1311       C  0.20426347  0.88662603  0.25821483    -0.14230
C1312       C  0.20922160  0.84199198  0.25758458    -0.14230
C1313       C  0.25487703  0.82271318  0.25762037     0.07920
C1314       C  0.29545826  0.84902297  0.25886805    -0.14230
H1315       H  0.32254025  0.91327638  0.25834434     0.11900
H1316       H  0.16870953  0.90054837  0.25755390     0.11900
H1317       H  0.17730967  0.82248018  0.25664131     0.11900
H1318       H  0.33106243  0.83516242  0.25875683     0.11900
C1319       C  0.29806621  0.35516367  0.23231016    -0.14230
C1320       C  0.25990106  0.32637317  0.23143172     0.07920
C1321       C  0.21270576  0.34172637  0.22938228    -0.14230
C1322       C  0.20335654  0.38534160  0.23057071    -0.14230
C1323       C  0.24108595  0.41365896  0.23454915     0.07920
C1324       C  0.28862446  0.39869417  0.23421527    -0.14230
H1325       H  0.33464712  0.34380110  0.23396986     0.11900
H1326       H  0.18286354  0.31973155  0.22858007     0.11900
H1327       H  0.16651724  0.39636610  0.23068672     0.11900
H1328       H  0.31823278  0.42035992  0.23697185     0.11900
C1329       C  0.41452476  0.10558597  0.34958567    -0.14230
C1330       C  0.36766032  0.12173382  0.35048006     0.07920
C1331       C  0.33873091  0.11258605  0.37268956    -0.14230
C1332       C  0.35661264  0.08755966  0.39358988    -0.14230
C1333       C  0.40350591  0.07114778  0.39243710     0.07920
C1334       C  0.43195423  0.08020775  0.37009152    -0.14230
H1335       H  0.43793084  0.11188781  0.33289110     0.11900
H1336       H  0.30227480  0.12442930  0.37380230     0.11900
H1337       H  0.33397000  0.08131604  0.41065176     0.11900
H1338       H  0.46808151  0.06801597  0.36827188     0.11900
C1339       C  0.13337007  0.08531551  0.38001160    -0.14230
C1340       C  0.12178327  0.10005258  0.35473947     0.07920
C1341       C  0.09179111  0.13610432  0.35189888    -0.14230
C1342       C  0.07814165  0.15955717  0.37374346    -0.14230
C1343       C  0.09365461  0.14695510  0.39884689     0.07920
C1344       C  0.11913986  0.10826023  0.40184769    -0.14230
H1345       H  0.15765113  0.05853924  0.38271155     0.11900
H1346       H  0.08367968  0.14897125  0.33252498     0.11900
H1347       H  0.05804775  0.18888990  0.37079559     0.11900
H1348       H  0.13138293  0.09713472  0.42085850     0.11900
C1349       C  0.67511972  0.75720136  0.09935631    -0.14230
C1350       C  0.64708550  0.71989819  0.10206655     0.07920
C1351       C  0.63633730  0.70365900  0.12726426    -0.14230
C1352       C  0.64876474  0.72650382  0.14922850    -0.14230
C1353       C  0.67166527  0.76647878  0.14643546     0.07920
C1354       C  0.68697282  0.78052184  0.12134962    -0.14230
H1355       H  0.68260918  0.77111182  0.08005248     0.11900
H1356       H  0.61366820  0.67576125  0.12989155     0.11900
H1357       H  0.63704568  0.71410400  0.16822584     0.11900
H1358       H  0.70518908  0.81084437  0.11855357     0.11900
C1359       C  0.89294996  0.98540524  0.14949605    -0.14230
C1360       C  0.85436918  0.95865422  0.14386332     0.07920
C1361       C  0.83158742  0.96421359  0.11956532    -0.14230
C1362       C  0.84942424  0.99339028  0.10055286    -0.14230
C1363       C  0.89073786  0.01723860  0.10534949     0.07920
C1364       C  0.91073672  0.01459214  0.13047250    -0.14230
H1365       H  0.91063304  0.98259404  0.16820413     0.11900
H1366       H  0.80153830  0.94435885  0.11462668     0.11900
H1367       H  0.83436574  0.99356320  0.08112097     0.11900
H1368       H  0.94350358  0.03164544  0.13438937     0.11900
C1369       C  0.95593779  0.72509728  0.26110741    -0.14230
C1370       C  0.95154767  0.76345401  0.24627049     0.07920
C1371       C  0.99003488  0.77732113  0.23030539    -0.14230
C1372       C  0.03248199  0.75395795  0.22958149    -0.14230
C1373       C  0.03737396  0.71601392  0.24468900     0.07920
C1374       C  0.99857740  0.70148546  0.26028849    -0.14230
H1375       H  0.92668535  0.71364406  0.27357035     0.11900
H1376       H  0.98770963  0.80644814  0.21843667     0.11900
H1377       H  0.06132465  0.76579162  0.21701751     0.11900
H1378       H  0.00141642  0.67223263  0.27204764     0.11900
C1379       C  0.54809888  0.01133519  0.24703152    -0.14230
C1380       C  0.54325814  0.96662092  0.24754125     0.07920
C1381       C  0.49743759  0.94861815  0.24968929    -0.14230
C1382       C  0.45693552  0.97468922  0.25019467    -0.14230
C1383       C  0.46133926  0.01937500  0.24909993     0.07920
C1384       C  0.50730941  0.03762629  0.24819124    -0.14230
H1385       H  0.58329700  0.02582428  0.24549174     0.11900
H1386       H  0.49277376  0.91429870  0.24999251     0.11900
H1387       H  0.42194018  0.95973375  0.25106760     0.11900
H1388       H  0.51156991  0.07198034  0.24719417     0.11900
C1389       C  0.64664234  0.85182429  0.37812817    -0.14230
C1390       C  0.63139792  0.86584228  0.35332362     0.07920
C1391       C  0.60097222  0.90152189  0.35107996    -0.14230
C1392       C  0.58771382  0.92384590  0.37347539    -0.14230
C1393       C  0.60423321  0.91025694  0.39828155     0.07920
C1394       C  0.63303701  0.87355299  0.40033259    -0.14230
H1395       H  0.67028824  0.82448529  0.38028632     0.11900
H1396       H  0.58943130  0.91324127  0.33201369     0.11900
H1397       H  0.56532884  0.95199386  0.37137281     0.11900
H1398       H  0.64656256  0.86211579  0.41901178     0.11900
C1399       C  0.84997267  0.89069396  0.37641449    -0.14230
C1400       C  0.87340138  0.89515940  0.35193108     0.07920
C1401       C  0.91768800  0.87456514  0.34847066    -0.14230
C1402       C  0.93617491  0.84755129  0.36838548    -0.14230
C1403       C  0.91068445  0.84049701  0.39214371     0.07920
C1404       C  0.86822143  0.86361434  0.39622836    -0.14230
H1405       H  0.81495938  0.90498678  0.37931580     0.11900
H1406       H  0.93555563  0.87589438  0.32951791     0.11900
H1407       H  0.96915774  0.83046583  0.36457365     0.11900
H1408       H  0.84804211  0.85953428  0.41437547     0.11900
C1409       C  0.61944352  0.24287444  0.14828015    -0.14230
C1410       C  0.65396134  0.27552614  0.14732700     0.07920
C1411       C  0.67585839  0.28675870  0.12316522    -0.14230
C1412       C  0.66334340  0.26571078  0.10040525    -0.14230
C1413       C  0.62797512  0.23373525  0.10137121     0.07920
C1414       C  0.60625173  0.22255855  0.12552377    -0.14230
H1415       H  0.60162167  0.23364332  0.16652256     0.11900
H1416       H  0.70260288  0.31177851  0.12188712     0.11900
H1417       H  0.68023718  0.27538751  0.08197151     0.11900
H1418       H  0.57870430  0.19822301  0.12677091     0.11900
C1419       C  0.90083895  0.45882901  0.14639421    -0.14230
C1420       C  0.85883338  0.43469286  0.14389882     0.07920
C1421       C  0.83490758  0.43589299  0.11991900    -0.14230
C1422       C  0.85130141  0.46189488  0.09917380    -0.14230
C1423       C  0.89262149  0.48680723  0.10170201     0.07920
C1424       C  0.91771439  0.48463266  0.12537672    -0.14230
H1425       H  0.91989037  0.45860415  0.16471705     0.11900
H1426       H  0.80291916  0.41715118  0.11717920     0.11900
H1427       H  0.83158594  0.46191478  0.08111255     0.11900
H1428       H  0.95005811  0.50312934  0.12769470     0.11900
C1429       C  0.00224034  0.29046557  0.24511572    -0.14230
C1430       C  0.95810877  0.26953236  0.24911028     0.07920
C1431       C  0.95776275  0.22467746  0.25149370    -0.14230
C1432       C  0.00073280  0.20127911  0.25004045    -0.14230
C1433       C  0.04495800  0.22240130  0.24695777     0.07920
C1434       C  0.04518660  0.26720870  0.24441185    -0.14230
H1435       H  0.00376876  0.32495622  0.24334730     0.11900
H1436       H  0.92422933  0.20772598  0.25452250     0.11900
H1437       H  0.99953861  0.16681022  0.25226821     0.11900
H1438       H  0.07873514  0.28434475  0.24201451     0.11900
C1439       C  0.69864461  0.58803519  0.24578467    -0.14230
C1440       C  0.74336446  0.56770858  0.24861926     0.07920
C1441       C  0.78445371  0.59204352  0.25244249    -0.14230
C1442       C  0.78097034  0.63620419  0.25345814    -0.14230
C1443       C  0.73623943  0.65657937  0.25098601     0.07920
C1444       C  0.69511008  0.63232134  0.24692215    -0.14230
H1445       H  0.66635968  0.56973684  0.24291838     0.11900
H1446       H  0.81932953  0.57701498  0.25423807     0.11900
H1447       H  0.81343136  0.65429872  0.25617734     0.11900
H1448       H  0.66029598  0.64744980  0.24515003     0.11900
C1449       C  0.78179991  0.08824668  0.26230890    -0.14230
C1450       C  0.75530325  0.06943717  0.24272477     0.07920
C1451       C  0.72467039  0.09467565  0.22701069    -0.14230
C1452       C  0.71954022  0.13803754  0.23135452    -0.14230
C1453       C  0.74526500  0.15663456  0.25128972     0.07920
C1454       C  0.77676889  0.13162784  0.26660425    -0.14230
H1455       H  0.80550057  0.06928375  0.27466249     0.11900
H1456       H  0.70444313  0.08104010  0.21143513     0.11900
H1457       H  0.69561851  0.15700930  0.21912862     0.11900
H1458       H  0.79682816  0.14525809  0.28224684     0.11900
C1459       C  0.53311303  0.49991062  0.23822516    -0.14230
C1460       C  0.53327453  0.45733865  0.24800365     0.07920
C1461       C  0.49097662  0.44057566  0.25926408    -0.14230
C1462       C  0.44955528  0.46562912  0.26081388    -0.14230
C1463       C  0.44927910  0.50838540  0.25138608     0.07920
C1464       C  0.49157532  0.52523033  0.23997702    -0.14230
H1465       H  0.56523626  0.51375288  0.22938609     0.11900
H1466       H  0.48961998  0.40789527  0.26675612     0.11900
H1467       H  0.41780019  0.45117596  0.26958121     0.11900
H1468       H  0.49260961  0.55796005  0.23251697     0.11900
C1469       C  0.66152492  0.40323633  0.36486336    -0.14230
C1470       C  0.63427493  0.37009790  0.35462534     0.07920
C1471       C  0.58920395  0.36036785  0.36571763    -0.14230
C1472       C  0.57281288  0.38210477  0.38769179    -0.14230
C1473       C  0.60085640  0.41436211  0.39821146     0.07920
C1474       C  0.64476753  0.42539469  0.38637903    -0.14230
H1475       H  0.69626432  0.41157186  0.35646110     0.11900
H1476       H  0.56782786  0.33485755  0.35813749     0.11900
H1477       H  0.53881904  0.37322368  0.39679767     0.11900
H1478       H  0.66678308  0.45014515  0.39434946     0.11900
C1479       C  0.91581804  0.38114466  0.35099405    -0.14230
C1480       C  0.87124847  0.40086745  0.35514329     0.07920
C1481       C  0.84878524  0.39556036  0.37981909    -0.14230
C1482       C  0.86777689  0.36762396  0.39893712    -0.14230
C1483       C  0.91000898  0.34466608  0.39389299     0.07920
C1484       C  0.93496156  0.35320620  0.37015804    -0.14230
H1485       H  0.93304621  0.38335433  0.33187936     0.11900
H1486       H  0.81366612  0.40933674  0.38323934     0.11900
H1487       H  0.84813384  0.36249613  0.41717699     0.11900
H1488       H  0.96784500  0.33641898  0.36567322     0.11900
loop_ 
_geom_bond_atom_site_label_1 
_geom_bond_atom_site_label_2 
_geom_bond_distance 
_geom_bond_site_symmetry_2 
_ccdc_geom_bond_type 
C1           N19   1.335       .  A
C1           C38   1.482       .  S
C1         C1480   1.470       .  S
N2           N19   1.312       .  A
N2           N24   1.314       .  A
N2          Co39   2.041       .  S
C3           N28   1.332       .  A
C3           C41   1.456       .  S
C3           H48   1.081       .  S
H4           C45   1.081       .  S
C5           N29   1.345       .  A
C5            C9   1.469       .  S
C5           H34   1.082       .  S
Co6          N24   2.111       .  S
Co6          N14   2.095       .  S
Co6          N46   2.085       .  S
Co6          N22   2.094       .  S
Co6         Cl50   2.483       .  S
N7           C45   1.331       .  A
N7           N14   1.324       .  A
N7           Co8   2.069       .  S
Co8          N11   2.080       .  S
Co8          N28   2.062       .  S
Co8          N15   2.096       .  S
Co8         Cl50   2.419       .  S
C9           N47   1.349       .  A
C9         C1460   1.487       .  S
N10          N17   1.319       .  A
N10          N40   1.329       .  A
N10         Co43   2.092       .  S
N11          N29   1.316       .  A
N11          N47   1.325       .  A
N12          C41   1.354       .  A
N12          N22   1.326       .  A
H13          C38   1.081       .  S
N14          N35   1.325       .  A
N15          N33   1.319       .  A
N15          N20   1.328       .  A
C16          N20   1.354       .  A
C16          C44   1.460       .  S
C16        C1410   1.482       .  S
N17          C32   1.335       .  A
N17         Co39   2.077       .  S
C18          N46   1.342       .  A
C18          C21   1.464       .  S
C18          H52   1.082       .  S
C21          N42   1.354       .  A
C21        C1430   1.487       .  S
N22          N28   1.320       .  A
N23          C49   1.329       .  A
N23          N25   1.316       .  A
N23         Co39   2.030       .  S
N24          C38   1.354       .  A
N25          N53   1.325       .  A
N25         Co43   2.092       .  S
H26          C49   1.081       .  S
H27          C44   1.082       .  S
N29         Co43   2.091       .  S
N30          N42   1.328       .  A
N30          N46   1.321       .  A
N30         Co39   2.113       .  S
C31          N35   1.353       .  A
C31          C45   1.447       .  S
C31        C1440   1.461       .  S
C32          C51   1.451       .  S
C32          H36   1.080       .  S
N33          C44   1.339       .  A
N33         Co43   2.083       .  S
C37          N53   1.353       .  A
C37          C49   1.445       .  S
C37        C1453   1.459       .  S
Co39        Cl50   2.413       .  S
N40          C51   1.354       .  A
C41        C1420   1.475       .  S
Co43        Cl50   2.473       .  S
C51        C1470   1.472       .  S
C54          N72   1.348       .  A
C54          C91   1.460       .  S
C54        C1380   1.474       .  S
N55          N72   1.326       .  A
N55          N77   1.316       .  A
N55         Co92   2.079       .  S
C56          N81   1.328       .  A
C56          C94   1.445       .  S
C56         H101   1.081       .  S
H57          C98   1.081       .  S
C58          N82   1.357       .  A
C58          C62   1.485       .  S
C58          H87   1.081       .  S
Co59         N77   2.075       .  S
Co59         N67   2.087       .  S
Co59         N99   2.073       .  S
Co59         N75   2.090       .  S
Co59       Cl103   2.471       .  S
N60          C98   1.334       .  A
N60          N67   1.318       .  A
N60         Co61   2.073       .  S
Co61         N64   2.031       .  S
Co61         N81   2.030       .  S
Co61         N68   2.096       .  S
Co61       Cl103   2.407       .  S
C62         N100   1.334       .  A
C62        C1400   1.475       .  S
N63          N70   1.325       .  A
N63          N93   1.323       .  A
N63         Co96   2.083       .  S
N64          N82   1.315       .  A
N64         N100   1.312       .  A
N65          C94   1.353       .  A
N65          N75   1.326       .  A
H66          C91   1.082       .  S
N67          N88   1.329       .  A
N68          N86   1.321       .  A
N68          N73   1.324       .  A
C69          N73   1.349       .  A
C69          C97   1.462       .  S
C69        C1370   1.474       .  S
N70          C85   1.330       .  A
N70         Co92   2.075       .  S
C71          N99   1.335       .  A
C71          C74   1.456       .  S
C71         H105   1.081       .  S
C74          N95   1.359       .  A
C74        C1353   1.488       .  S
N75          N81   1.314       .  A
N76         C102   1.335       .  A
N76          N78   1.321       .  A
N76         Co92   2.055       .  S
N77          C91   1.341       .  A
N78         N106   1.328       .  A
N78         Co96   2.111       .  S
H79         C102   1.082       .  S
H80          C97   1.081       .  S
N82         Co96   2.127       .  S
N83          N95   1.331       .  A
N83          N99   1.320       .  A
N83         Co92   2.112       .  S
C84          N88   1.353       .  A
C84          C98   1.451       .  S
C84        C1390   1.471       .  S
C85         C104   1.449   1_565  S
C85          H89   1.081   1_565  S
N86          C97   1.337       .  A
N86         Co96   2.072       .  S
C90         N106   1.357       .  A
C90         C102   1.453       .  S
C90        C1360   1.485       .  S
Co92       Cl103   2.417       .  S
N93         C104   1.352   1_565  A
C94        C1443   1.462       .  S
Co96       Cl103   2.481       .  S
C104       C1450   1.460       .  S
C107        N125   1.356       .  A
C107        C144   1.458       .  S
C107       C1433   1.486       .  S
N108        N125   1.330       .  A
N108        N130   1.323       .  A
N108       Co145   2.105       .  S
C109        N134   1.334       .  A
C109        C147   1.460       .  S
C109        H154   1.080       .  S
H110        C151   1.081       .  S
C111        N135   1.350       .  A
C111        C115   1.473       .  S
C111        H140   1.081       .  S
Co112       N130   2.097       .  S
Co112       N120   2.055       .  S
Co112       N152   2.043       .  S
Co112       N128   2.089       .  S
Co112      Cl156   2.402       .  S
N113        C151   1.345       .  A
N113        N120   1.316       .  A
N113       Co114   2.084       .  S
Co114       N117   2.049       .  S
Co114       N134   2.059       .  S
Co114       N121   2.097       .  S
Co114      Cl156   2.486       .  S
C115        N153   1.341       .  A
C115       C1290   1.478       .  S
N116        N123   1.320       .  A
N116        N146   1.316       .  A
N116       Co149   2.050       .  S
N117        N135   1.319       .  A
N117        N153   1.317       .  A
N118        C147   1.351       .  A
N118        N128   1.325       .  A
H119        C144   1.081       .  S
N120        N141   1.318       .  A
N121        N139   1.317       .  A
N121        N126   1.331       .  A
C122        N126   1.356       .  A
C122        C150   1.451       .  S
C122       C1383   1.477       .  S
N123        C138   1.350       .  A
N123       Co145   2.110       .  S
C124        N152   1.326       .  A
C124        C127   1.443       .  S
C124        H158   1.081       .  S
C127        N148   1.363       .  A
C127       C1340   1.473       .  S
N128        N134   1.317       .  A
N129        C155   1.350   1_545  A
N129        N131   1.325       .  A
N129       Co145   2.118       .  S
N130        C144   1.340       .  A
N131        N159   1.325   1_545  A
N131       Co149   2.103       .  S
H132        C155   1.082       .  S
H133        C150   1.081       .  S
N135       Co149   2.114       .  S
N136        N148   1.333       .  A
N136        N152   1.317       .  A
N136       Co145   2.121       .  S
C137        N141   1.343       .  A
C137        C151   1.461       .  S
C137       C1320   1.461       .  S
C138        C157   1.475       .  S
C138        H142   1.082       .  S
N139        C150   1.333       .  A
N139       Co149   2.063       .  S
C143        N159   1.349       .  A
C143        C155   1.472       .  S
C143       C1310   1.490       .  S
Co145      Cl156   2.499       .  S
N146        C157   1.340       .  A
C147       C1330   1.474       .  S
Co149      Cl156   2.408       .  S
C157       C1300   1.479       .  S
C160        N178   1.360       .  A
C160        C197   1.457       .  S
C160       C1463   1.491       .  S
N161        N178   1.332       .  A
N161        N183   1.321       .  A
N161       Co198   2.112       .  S
C162        N187   1.343       .  A
C162        C200   1.464       .  S
C162        H207   1.081       .  S
H163        C204   1.081       .  S
C164        N188   1.352       .  A
C164        C168   1.475       .  S
C164        H193   1.082       .  S
Co165       N183   2.085       .  S
Co165       N173   2.053       .  S
Co165       N205   2.046       .  S
Co165       N181   2.080       .  S
Co165      Cl209   2.412       .  S
N166        C204   1.344       .  A
N166        N173   1.316       .  A
N166       Co167   2.085       .  S
Co167       N170   2.067       .  S
Co167       N187   2.077       .  S
Co167       N174   2.078       .  S
Co167      Cl209   2.481       .  S
C168        N206   1.343       .  A
C168       C1260   1.487       .  S
N169        N176   1.320       .  A
N169        N199   1.316       .  A
N169       Co202   2.058       .  S
N170        N188   1.320       .  A
N170        N206   1.319       .  A
N171        C200   1.347       .  A
N171        N181   1.321       .  A
H172        C197   1.081       .  S
N173        N194   1.319       .  A
N174        N192   1.316       .  A
N174        N179   1.326       .  A
C175        N179   1.353       .  A
C175        C203   1.456       .  S
C175       C1373   1.474       .  S
N176        C191   1.348       .  A
N176       Co198   2.098       .  S
C177        N205   1.327       .  A
C177        C180   1.445       .  S
C177        H211   1.082       .  S
C180        N201   1.361       .  A
C180       C1270   1.468       .  S
N181        N187   1.317       .  A
N182        C208   1.349       .  A
N182        N184   1.326       .  A
N182       Co198   2.117       .  S
N183        C197   1.336       .  A
N184        N212   1.326       .  A
N184       Co202   2.109       .  S
H185        C208   1.081       .  S
H186        C203   1.081       .  S
N188       Co202   2.118       .  S
N189        N201   1.330       .  A
N189        N205   1.317       .  A
N189       Co198   2.111       .  S
C190        N194   1.343       .  A
C190        C204   1.459       .  S
C190       C1323   1.463       .  S
C191        C210   1.470       .  S
C191        H195   1.081       .  S
N192        C203   1.334       .  A
N192       Co202   2.066       .  S
C196        N212   1.350       .  A
C196        C208   1.470       .  S
C196       C1313   1.490       .  S
Co198      Cl209   2.488       .  S
N199        C210   1.343       .  A
C200       C1280   1.474       .  S
Co202      Cl209   2.412       .  S
C210       C1253   1.476       .  S
C213        N231   1.349       .  A
C213        C250   1.463       .  S
C213       C1413   1.480       .  S
N214        N231   1.324       .  A
N214        N236   1.318       .  A
N214       Co251   2.088       .  S
C215        N240   1.352       .  A
C215        C253   1.475       .  S
C215        H260   1.082       .  S
H216        C257   1.081       .  S
C217        N241   1.345   1_554  A
C217        C221   1.466       .  S
C217        H246   1.081       .  S
Co218       N236   2.087   1_556  S
Co218       N226   2.076       .  S
Co218       N258   2.086       .  S
Co218       N234   2.079       .  S
Co218      Cl262   2.482       .  S
N219        C257   1.337       .  A
N219        N226   1.315       .  A
N219       Co220   2.067       .  S
Co220       N223   2.105       .  S
Co220       N240   2.123       .  S
Co220       N227   2.061       .  S
Co220      Cl262   2.417       .  S
C221        N259   1.349   1_554  A
C221       C1223   1.480       .  S
N222        N229   1.316       .  A
N222        N252   1.328       .  A
N222       Co255   2.098   1_554  S
N223        N241   1.325       .  A
N223        N259   1.325       .  A
N224        C253   1.346       .  A
N224        N234   1.322       .  A
H225        C250   1.081       .  S
N226        N247   1.326   1_556  A
N227        N245   1.321       .  A
N227        N232   1.321       .  A
C228        N232   1.344       .  A
C228        C256   1.469       .  S
C228       C1200   1.483       .  S
N229        C244   1.328       .  A
N229       Co251   2.045       .  S
C230        N258   1.346       .  A
C230        C233   1.462       .  S
C230        H264   1.081       .  S
C233        N254   1.343   1_556  A
C233       C1230   1.467       .  S
N234        N240   1.322       .  A
N235        C261   1.336       .  A
N235        N237   1.323   1_554  A
N235       Co251   2.089       .  S
N236        C250   1.345       .  A
N237        N265   1.330       .  A
N237       Co255   2.110       .  S
H238        C261   1.081       .  S
H239        C256   1.081       .  S
N241       Co255   2.103       .  S
N242        N254   1.320       .  A
N242        N258   1.315   1_554  A
N242       Co251   2.054       .  S
C243        N247   1.351   1_556  A
C243        C257   1.452       .  S
C243       C1240   1.470   1_556  S
C244        C263   1.448       .  S
C244        H248   1.082       .  S
N245        C256   1.345       .  A
N245       Co255   2.097       .  S
C249        N265   1.359       .  A
C249        C261   1.457   1_556  S
C249       C1210   1.487       .  S
Co251      Cl262   2.414   1_554  S
N252        C263   1.357       .  A
C253       C1190   1.492       .  S
Co255      Cl262   2.478       .  S
C263       C1293   1.465       .  S
C266        N284   1.350       .  A
C266        C303   1.462       .  S
C266       C1250   1.477       .  S
N267        N284   1.325       .  A
N267        N289   1.317       .  A
N267       Co304   2.087       .  S
C268        N293   1.349       .  A
C268        C306   1.471       .  S
C268        H313   1.081       .  S
H269        C310   1.080       .  S
C270        N294   1.347       .  A
C270        C274   1.468       .  S
C270        H299   1.082       .  S
Co271       N289   2.067   1_556  S
Co271       N279   2.091       .  S
Co271       N311   2.090       .  S
Co271       N287   2.053       .  S
Co271      Cl315   2.481       .  S
N272        C310   1.334       .  A
N272        N279   1.315       .  A
N272       Co273   2.061       .  S
Co273       N276   2.095       .  S
Co273       N293   2.109       .  S
Co273       N280   2.059       .  S
Co273      Cl315   2.412       .  S
C274        N312   1.347   1_554  A
C274       C1220   1.479       .  S
N275        N282   1.316       .  A
N275        N305   1.333       .  A
N275       Co308   2.118   1_554  S
N276        N294   1.325   1_556  A
N276        N312   1.322       .  A
N277        C306   1.341       .  A
N277        N287   1.315       .  A
H278        C303   1.080       .  S
N279        N300   1.328   1_556  A
N280        N298   1.322       .  A
N280        N285   1.321       .  A
C281        N285   1.342       .  A
C281        C309   1.474       .  S
C281       C1150   1.487       .  S
N282        C297   1.326       .  A
N282       Co304   2.037       .  S
C283        N311   1.347       .  A
C283        C286   1.465       .  S
C283        H317   1.081       .  S
C286        N307   1.342   1_556  A
C286       C1233   1.466       .  S
N287        N293   1.320       .  A
N288        C314   1.339       .  A
N288        N290   1.324   1_554  A
N288       Co304   2.096       .  S
N289        C303   1.337       .  A
N290        N318   1.331       .  A
N290       Co308   2.114       .  S
H291        C314   1.081       .  S
H292        C309   1.082       .  S
N294       Co308   2.107   1_554  S
N295        N307   1.318       .  A
N295        N311   1.316   1_554  A
N295       Co304   2.051       .  S
C296        N300   1.356   1_556  A
C296        C310   1.454       .  S
C296       C1170   1.479       .  S
C297        C316   1.442       .  S
C297        H301   1.081       .  S
N298        C309   1.349       .  A
N298       Co308   2.116       .  S
C302        N318   1.359       .  A
C302        C314   1.457   1_556  S
C302       C1180   1.488       .  S
Co304      Cl315   2.405   1_554  S
N305        C316   1.362       .  A
C306       C1160   1.473       .  S
Co308      Cl315   2.495       .  S
C316       C1350   1.471       .  S
C319        N337   1.344       .  A
C319        C356   1.467       .  S
C319       C1303   1.479       .  S
N320        N337   1.321       .  A
N320        N342   1.318       .  A
N320       Co357   2.077   1_455  S
C321        N346   1.351       .  A
C321        C359   1.474       .  S
C321        H366   1.082       .  S
H322        C363   1.081       .  S
C323        N347   1.346   1_554  A
C323        C327   1.467   1_655  S
C323        H352   1.081       .  S
Co324       N342   2.085   1_556  S
Co324       N332   2.100   1_565  S
Co324       N364   2.101       .  S
Co324       N340   2.069       .  S
Co324      Cl368   2.476       .  S
N325        C363   1.338       .  A
N325        N332   1.316       .  A
N325       Co326   2.070       .  S
Co326       N329   2.106       .  S
Co326       N346   2.121   1_545  S
Co326       N333   2.059   1_455  S
Co326      Cl368   2.421   1_545  S
C327        N365   1.350   1_554  A
C327       C1140   1.485       .  S
N328        N335   1.314   1_545  A
N328        N358   1.332       .  A
N328       Co361   2.114       .  S
N329        N347   1.326   1_455  A
N329        N365   1.326       .  A
N330        C359   1.344       .  A
N330        N340   1.320       .  A
H331        C356   1.081       .  S
N332        N353   1.329       .  A
N333        N351   1.319       .  A
N333        N338   1.319       .  A
C334        N338   1.344       .  A
C334        C362   1.470       .  S
C334       C1110   1.477       .  S
N335        C350   1.324       .  A
N335       Co357   2.039       .  S
C336        N364   1.347       .  A
C336        C339   1.465       .  S
C336        H370   1.081       .  S
C339        N360   1.342   1_456  A
C339       C1130   1.471       .  S
N340        N346   1.321       .  A
N341        C367   1.342       .  A
N341        N343   1.322       .  A
N341       Co357   2.102       .  S
N342        C356   1.344       .  A
N343        N371   1.329   1_554  A
N343       Co361   2.103   1_565  S
H344        C367   1.082       .  S
H345        C362   1.081       .  S
N347       Co361   2.108   1_556  S
N348        N360   1.319   1_455  A
N348        N364   1.316   1_554  A
N348       Co357   2.045   1_455  S
C349        N353   1.357       .  A
C349        C363   1.456       .  S
C349       C1213   1.486       .  S
C350        C369   1.442   1_565  S
C350        H354   1.083       .  S
N351        C362   1.344       .  A
N351       Co361   2.097   1_556  S
C355        N371   1.356   1_554  A
C355        C367   1.461       .  S
C355       C1183   1.489   1_554  S
Co357      Cl368   2.411   1_654  S
N358        C369   1.365       .  A
C359       C1120   1.486       .  S
Co361      Cl368   2.489   1_644  S
C369       C1363   1.470       .  S
C372        N390   1.350       .  A
C372        C409   1.460       .  S
C372       C1423   1.474       .  S
N373        N390   1.324       .  A
N373        N395   1.316       .  A
N373       Co410   2.079   1_655  S
C374        N399   1.350       .  A
C374        C412   1.470       .  S
C374        H419   1.081       .  S
H375        C416   1.081       .  S
C376        N400   1.350       .  A
C376        C380   1.471       .  S
C376        H405   1.081       .  S
Co377       N395   2.064   1_556  S
Co377       N385   2.085       .  S
Co377       N417   2.088       .  S
Co377       N393   2.056       .  S
Co377      Cl421   2.478   1_655  S
N378        C416   1.336       .  A
N378        N385   1.317       .  A
N378       Co379   2.065       .  S
Co379       N382   2.092   1_655  S
Co379       N399   2.106       .  S
Co379       N386   2.057   1_655  S
Co379      Cl421   2.413   1_655  S
C380        N418   1.345   1_454  A
C380       C1143   1.482       .  S
N381        N388   1.317       .  A
N381        N411   1.332       .  A
N381       Co414   2.117       .  S
N382        N400   1.324   1_556  A
N382        N418   1.322   1_455  A
N383        C412   1.343       .  A
N383        N393   1.316       .  A
H384        C409   1.080       .  S
N385        N406   1.326   1_556  A
N386        N404   1.320       .  A
N386        N391   1.318       .  A
C387        N391   1.343       .  A
C387        C415   1.472       .  S
C387       C1100   1.477       .  S
N388        C403   1.327       .  A
N388       Co410   2.044       .  S
C389        N417   1.347       .  A
C389        C392   1.464       .  S
C389        H423   1.081       .  S
C392        N413   1.342   1_656  A
C392       C1133   1.464       .  S
N393        N399   1.319       .  A
N394        C420   1.336       .  A
N394        N396   1.321       .  A
N394       Co410   2.080       .  S
N395        C409   1.335       .  A
N396        N424   1.326   1_554  A
N396       Co414   2.097       .  S
H397        C420   1.080       .  S
H398        C415   1.082       .  S
N400       Co414   2.113       .  S
N401        N413   1.319       .  A
N401        N417   1.316   1_454  A
N401       Co410   2.058       .  S
C402        N406   1.352       .  A
C402        C416   1.453   1_554  S
C402       C1243   1.470       .  S
C403        C422   1.444       .  S
C403        H407   1.082       .  S
N404        C415   1.347       .  A
N404       Co414   2.104   1_556  S
C408        N424   1.356   1_554  A
C408        C420   1.455       .  S
C408       C1173   1.479   1_554  S
Co410      Cl421   2.403   1_554  S
N411        C422   1.362       .  A
C412       C1093   1.476       .  S
Co414      Cl421   2.491   1_554  S
C422       C1263   1.473       .  S
C425        N443   1.334       .  A
C425        C462   1.483       .  S
C425       C1193   1.475       .  S
N426        N443   1.313       .  A
N426        N448   1.314       .  A
N426       Co463   2.037       .  S
C427        N452   1.337       .  A
C427        C465   1.459       .  S
C427        H472   1.081       .  S
H428        C469   1.081   1_565  S
C429        N453   1.348       .  A
C429        C433   1.471       .  S
C429        H458   1.081       .  S
Co430       N448   2.117       .  S
Co430       N438   2.101       .  S
Co430       N470   2.082       .  S
Co430       N446   2.095       .  S
Co430      Cl474   2.481       .  S
N431        C469   1.329       .  A
N431        N438   1.326       .  A
N431       Co432   2.069       .  S
Co432       N435   2.088       .  S
Co432       N452   2.066       .  S
Co432       N439   2.102       .  S
Co432      Cl474   2.421       .  S
C433        N471   1.350       .  A
C433       C1050   1.494       .  S
N434        N441   1.319       .  A
N434        N464   1.328       .  A
N434       Co467   2.092       .  S
N435        N453   1.315       .  A
N435        N471   1.327       .  A
N436        C465   1.353       .  A
N436        N446   1.325       .  A
H437        C462   1.081       .  S
N438        N459   1.326       .  A
N439        N457   1.320       .  A
N439        N444   1.329       .  A
C440        N444   1.357       .  A
C440        C468   1.459       .  S
C440       C1040   1.487       .  S
N441        C456   1.334       .  A
N441       Co463   2.076       .  S
C442        N470   1.341       .  A
C442        C445   1.463       .  S
C442        H476   1.081       .  S
C445        N466   1.353       .  A
C445       C1080   1.483       .  S
N446        N452   1.320       .  A
N447        C473   1.327       .  A
N447        N449   1.315       .  A
N447       Co463   2.023       .  S
N448        C462   1.357       .  A
N449        N477   1.326       .  A
N449       Co467   2.090       .  S
H450        C473   1.081       .  S
H451        C468   1.080       .  S
N453       Co467   2.094       .  S
N454        N466   1.327       .  A
N454        N470   1.321       .  A
N454       Co463   2.111       .  S
C455        N459   1.354   1_565  A
C455        C469   1.444   1_565  S
C455       C1060   1.459       .  S
C456        C475   1.453       .  S
C456        H460   1.079       .  S
N457        C468   1.338       .  A
N457       Co467   2.085       .  S
C461        N477   1.353       .  A
C461        C473   1.444       .  S
C461       C1070   1.459       .  S
Co463      Cl474   2.410       .  S
N464        C475   1.356       .  A
C465       C1030   1.480       .  S
Co467      Cl474   2.476       .  S
C475       C1113   1.479       .  S
C478        N496   1.332       .  A
C478        C515   1.486       .  S
C478       C1153   1.472       .  S
N479        N496   1.311       .  A
N479        N501   1.315       .  A
N479       Co516   2.028       .  S
C480        N505   1.336       .  A
C480        C518   1.456       .  S
C480        H525   1.081       .  S
H481        C522   1.081       .  S
C482        N506   1.345       .  A
C482        C486   1.463       .  S
C482        H511   1.081       .  S
Co483       N501   2.128       .  S
Co483       N491   2.090       .  S
Co483       N523   2.086       .  S
Co483       N499   2.115       .  S
Co483      Cl527   2.487       .  S
N484        C522   1.331       .  A
N484        N491   1.324       .  A
N484       Co485   2.071       .  S
Co485       N488   2.083       .  S
Co485       N505   2.064       .  S
Co485       N492   2.108       .  S
Co485      Cl527   2.419       .  S
C486        N524   1.348       .  A
C486       C1010   1.481       .  S
N487        N494   1.318       .  A
N487        N517   1.327       .  A
N487       Co520   2.077       .  S
N488        N506   1.316       .  A
N488        N524   1.326       .  A
N489        C518   1.359       .  A
N489        N499   1.330       .  A
H490        C515   1.081       .  S
N491        N512   1.324       .  A
N492        N510   1.320       .  A
N492        N497   1.330       .  A
C493        N497   1.358       .  A
C493        C521   1.456       .  S
C493       C1000   1.485       .  S
N494        C509   1.335       .  A
N494       Co516   2.081       .  S
C495        N523   1.343       .  A
C495        C498   1.467       .  S
C495        H529   1.081       .  S
C498        N519   1.351       .  A
C498       C1020   1.486       .  S
N499        N505   1.321       .  A
N500        C526   1.327       .  A
N500        N502   1.315       .  A
N500       Co516   2.025       .  S
N501        C515   1.357       .  A
N502        N530   1.326       .  A
N502       Co520   2.092       .  S
H503        C526   1.081       .  S
H504        C521   1.080       .  S
N506       Co520   2.082       .  S
N507        N519   1.325       .  A
N507        N523   1.322       .  A
N507       Co516   2.105       .  S
C508        N512   1.352       .  A
C508        C522   1.446       .  S
C508       C1073   1.458       .  S
C509        C528   1.453       .  S
C509        H513   1.080       .  S
N510        C521   1.336       .  A
N510       Co520   2.072       .  S
C514        N530   1.354       .  A
C514        C526   1.443       .  S
C514       C1063   1.458       .  S
Co516      Cl527   2.405       .  S
N517        C528   1.350       .  A
C518        C990   1.489       .  S
Co520      Cl527   2.474       .  S
C528       C1090   1.470       .  S
C531        N549   1.333       .  A
C531        C568   1.479       .  S
C531       C1203   1.465       .  S
N532        N549   1.310       .  A
N532        N554   1.317       .  A
N532       Co569   2.038       .  S
C533        N558   1.333       .  A
C533        C571   1.452       .  S
C533        H578   1.081       .  S
H534        C575   1.082       .  S
C535        N559   1.351       .  A
C535        C539   1.471       .  S
C535        H564   1.082       .  S
Co536       N554   2.115       .  S
Co536       N544   2.101       .  S
Co536       N576   2.106       .  S
Co536       N552   2.110       .  S
Co536      Cl580   2.487       .  S
N537        C575   1.337       .  A
N537        N544   1.324       .  A
N537       Co538   2.095       .  S
Co538       N541   2.065       .  S
Co538       N558   2.056       .  S
Co538       N545   2.122       .  S
Co538      Cl580   2.411       .  S
C539        N577   1.343       .  A
C539       C1013   1.476       .  S
N540        N547   1.317       .  A
N540        N570   1.325       .  A
N540       Co573   2.074       .  S
N541        N559   1.317       .  A
N541        N577   1.319       .  A
N542        C571   1.357       .  A
N542        N552   1.328       .  A
H543        C568   1.082       .  S
N544        N565   1.329       .  A
N545        N563   1.319       .  A
N545        N550   1.334       .  A
C546        N550   1.361       .  A
C546        C574   1.448       .  S
C546        C963   1.480       .  S
N547        C562   1.339       .  A
N547       Co569   2.087       .  S
C548        N576   1.347       .  A
C548        C551   1.468       .  S
C548        H582   1.082       .  S
C551        N572   1.348       .  A
C551       C1083   1.483       .  S
N552        N558   1.322       .  A
N553        C579   1.331       .  A
N553        N555   1.316       .  A
N553       Co569   2.041       .  S
N554        C568   1.355       .  A
N555        N583   1.328       .  A
N555       Co573   2.101       .  S
H556        C579   1.081       .  S
H557        C574   1.081       .  S
N559       Co573   2.097       .  S
N560        N572   1.324       .  A
N560        N576   1.322       .  A
N560       Co569   2.092       .  S
C561        N565   1.355       .  A
C561        C575   1.455       .  S
C561        C970   1.479       .  S
C562        C581   1.456       .  S
C562        H566   1.078       .  S
N563        C574   1.327       .  A
N563       Co573   2.051       .  S
C567        N583   1.354       .  A
C567        C579   1.447       .  S
C567        C980   1.465       .  S
Co569      Cl580   2.412       .  S
N570        C581   1.354       .  A
C571        C950   1.481       .  S
Co573      Cl580   2.482       .  S
C581       C1103   1.480       .  S
C584        N602   1.338       .  A
C584        C621   1.477       .  S
C584       C1123   1.470       .  S
N585        N602   1.314       .  A
N585        N607   1.317       .  A
N585       Co622   2.045       .  S
C586        N611   1.333       .  A
C586        C624   1.454       .  S
C586        H631   1.081       .  S
H587        C628   1.081       .  S
C588        N612   1.346       .  A
C588        C592   1.467       .  S
C588        H617   1.081       .  S
Co589       N607   2.113       .  S
Co589       N597   2.111       .  S
Co589       N629   2.103       .  S
Co589       N605   2.104       .  S
Co589      Cl633   2.484       .  S
N590        C628   1.340       .  A
N590        N597   1.326       .  A
N590       Co591   2.100       .  S
Co591       N594   2.082       .  S
Co591       N611   2.056       .  S
Co591       N598   2.119       .  S
Co591      Cl633   2.426       .  S
C592        N630   1.349       .  A
C592       C1023   1.486       .  S
N593        N600   1.319       .  A
N593        N623   1.325       .  A
N593       Co626   2.070       .  S
N594        N612   1.316       .  A
N594        N630   1.324       .  A
N595        C624   1.357       .  A
N595        N605   1.328       .  A
H596        C621   1.081       .  S
N597        N618   1.328       .  A
N598        N616   1.319       .  A
N598        N603   1.332       .  A
C599        N603   1.361       .  A
C599        C627   1.451       .  S
C599        C930   1.486       .  S
N600        C615   1.337       .  A
N600       Co622   2.084       .  S
C601        N629   1.349       .  A
C601        C604   1.472       .  S
C601        H635   1.081       .  S
C604        N625   1.350       .  A
C604       C1053   1.493       .  S
N605        N611   1.319       .  A
N606        C632   1.333   1_565  A
N606        N608   1.315       .  A
N606       Co622   2.043       .  S
N607        C621   1.352       .  A
N608        N636   1.327   1_565  A
N608       Co626   2.095       .  S
H609        C632   1.080       .  S
H610        C627   1.079       .  S
N612       Co626   2.088       .  S
N613        N625   1.324       .  A
N613        N629   1.322       .  A
N613       Co622   2.104       .  S
C614        N618   1.355       .  A
C614        C628   1.459       .  S
C614        C973   1.483       .  S
C615        C634   1.457       .  S
C615        H619   1.081       .  S
N616        C627   1.332       .  A
N616       Co626   2.059       .  S
C620        N636   1.353       .  A
C620        C632   1.448       .  S
C620        C983   1.468       .  S
Co622      Cl633   2.416       .  S
N623        C634   1.348       .  A
C624        C940   1.482       .  S
Co626      Cl633   2.472       .  S
C634       C1163   1.469       .  S
C637        N655   1.353       .  A
C637        C674   1.460       .  S
C637       C1393   1.479       .  S
N638        N655   1.328       .  A
N638        N660   1.320       .  A
N638       Co675   2.090   1_565  S
C639        N664   1.338       .  A
C639        C677   1.457       .  S
C639        H684   1.080       .  S
H640        C681   1.081       .  S
C641        N665   1.343       .  A
C641        C645   1.466       .  S
C641        H670   1.081       .  S
Co642       N660   2.079       .  S
Co642       N650   2.088       .  S
Co642       N682   2.091   1_565  S
Co642       N658   2.083       .  S
Co642      Cl686   2.470       .  S
N643        C681   1.328       .  A
N643        N650   1.315       .  A
N643       Co644   2.033       .  S
Co644       N647   2.103       .  S
Co644       N664   2.079       .  S
Co644       N651   2.040   1_565  S
Co644      Cl686   2.408       .  S
C645        N683   1.351       .  A
C645        C890   1.483       .  S
N646        N653   1.318       .  A
N646        N676   1.326       .  A
N646       Co679   2.088       .  S
N647        N665   1.321       .  A
N647        N683   1.324       .  A
N648        C677   1.353       .  A
N648        N658   1.325       .  A
H649        C674   1.081       .  S
N650        N671   1.326       .  A
N651        N669   1.315       .  A
N651        N656   1.313       .  A
C652        N656   1.337       .  A
C652        C680   1.475       .  S
C652        C933   1.467       .  S
N653        C668   1.331       .  A
N653       Co675   2.058       .  S
C654        N682   1.346       .  A
C654        C657   1.469       .  S
C654        H688   1.082       .  S
C657        N678   1.350       .  A
C657        C920   1.490       .  S
N658        N664   1.319       .  A
N659        C685   1.329       .  A
N659        N661   1.324       .  A
N659       Co675   2.065       .  S
N660        C674   1.335       .  A
N661        N689   1.325       .  A
N661       Co679   2.095       .  S
H662        C685   1.081       .  S
H663        C680   1.082       .  S
N665       Co679   2.084   1_565  S
N666        N678   1.325       .  A
N666        N682   1.316       .  A
N666       Co675   2.084       .  S
C667        N671   1.353       .  A
C667        C681   1.445       .  S
C667        C900   1.461       .  S
C668        C687   1.457       .  S
C668        H672   1.081       .  S
N669        C680   1.352       .  A
N669       Co679   2.104       .  S
C673        N689   1.353       .  A
C673        C685   1.446       .  S
C673        C910   1.460       .  S
Co675      Cl686   2.419   1_545  S
N676        C687   1.354       .  A
C677       C1033   1.478   1_565  S
Co679      Cl686   2.483   1_545  S
C687       C1333   1.477       .  S
C690        N708   1.349       .  A
C690        C727   1.457       .  S
C690       C1473   1.465       .  S
N691        N708   1.325       .  A
N691        N713   1.322       .  A
N691       Co728   2.085       .  S
C692        N717   1.338       .  A
C692        C730   1.455       .  S
C692        H737   1.079       .  S
H693        C734   1.081       .  S
C694        N718   1.347       .  A
C694        C698   1.470       .  S
C694        H723   1.082       .  S
Co695       N713   2.092       .  S
Co695       N703   2.092       .  S
Co695       N735   2.091       .  S
Co695       N711   2.098       .  S
Co695      Cl739   2.469       .  S
N696        C734   1.329       .  A
N696        N703   1.316       .  A
N696       Co697   2.031       .  S
Co697       N700   2.105       .  S
Co697       N717   2.084       .  S
Co697       N704   2.034       .  S
Co697      Cl739   2.414       .  S
C698        N736   1.351       .  A
C698        C870   1.492       .  S
N699        N706   1.320       .  A
N699        N729   1.326       .  A
N699       Co732   2.095       .  S
N700        N718   1.322       .  A
N700        N736   1.326       .  A
N701        C730   1.357       .  A
N701        N711   1.329       .  A
H702        C727   1.082       .  S
N703        N724   1.325       .  A
N704        N722   1.314       .  A
N704        N709   1.311       .  A
C705        N709   1.335       .  A
C705        C733   1.479       .  S
C705        C953   1.463       .  S
N706        C721   1.336       .  A
N706       Co728   2.063       .  S
C707        N735   1.348       .  A
C707        C710   1.470       .  S
C707        H741   1.082       .  S
C710        N731   1.346       .  A
C710        C880   1.484       .  S
N711        N717   1.318       .  A
N712        C738   1.330       .  A
N712        N714   1.323       .  A
N712       Co728   2.062       .  S
N713        C727   1.340       .  A
N714        N742   1.324       .  A
N714       Co732   2.092       .  S
H715        C738   1.081       .  S
H716        C733   1.082       .  S
N718       Co732   2.100       .  S
N719        N731   1.322       .  A
N719        N735   1.315       .  A
N719       Co728   2.070       .  S
C720        N724   1.353       .  A
C720        C734   1.445       .  S
C720        C913   1.460       .  S
C721        C740   1.455       .  S
C721        H725   1.081       .  S
N722        C733   1.352       .  A
N722       Co732   2.106       .  S
C726        N742   1.353       .  A
C726        C738   1.446       .  S
C726        C903   1.459       .  S
Co728      Cl739   2.420       .  S
N729        C740   1.354       .  A
C730        C993   1.487       .  S
Co732      Cl739   2.481       .  S
C740       C1273   1.480       .  S
C743        N761   1.359       .  A
C743        C780   1.457       .  S
C743       C1343   1.489       .  S
N744        N761   1.331       .  A
N744        N766   1.322       .  A
N744       Co781   2.117       .  S
C745        N770   1.333       .  A
C745        C783   1.454       .  S
C745        H790   1.080       .  S
H746        C787   1.081       .  S
C747        N771   1.346       .  A
C747        C751   1.470       .  S
C747        H776   1.082       .  S
Co748       N766   2.080       .  S
Co748       N756   2.095       .  S
Co748       N788   2.084       .  S
Co748       N764   2.091       .  S
Co748      Cl792   2.470       .  S
N749        C787   1.331   1_455  A
N749        N756   1.314       .  A
N749       Co750   2.034   1_455  S
Co750       N753   2.107       .  S
Co750       N770   2.080   1_655  S
Co750       N757   2.037       .  S
Co750      Cl792   2.417   1_655  S
C751        N789   1.351       .  A
C751        C923   1.490       .  S
N752        N759   1.321       .  A
N752        N782   1.327       .  A
N752       Co785   2.102       .  S
N753        N771   1.324       .  A
N753        N789   1.325       .  A
N754        C783   1.354       .  A
N754        N764   1.330       .  A
H755        C780   1.081       .  S
N756        N777   1.326       .  A
N757        N775   1.314       .  A
N757        N762   1.313       .  A
C758        N762   1.336       .  A
C758        C786   1.478       .  S
C758       C1043   1.470       .  S
N759        C774   1.339       .  A
N759       Co781   2.065   1_655  S
C760        N788   1.345       .  A
C760        C763   1.467       .  S
C760        H794   1.082       .  S
C763        N784   1.352       .  A
C763        C873   1.492       .  S
N764        N770   1.319       .  A
N765        C791   1.334       .  A
N765        N767   1.326   1_455  A
N765       Co781   2.083       .  S
N766        C780   1.336       .  A
N767        N795   1.325       .  A
N767       Co785   2.100       .  S
H768        C791   1.081       .  S
H769        C786   1.082       .  S
N771       Co785   2.102       .  S
N772        N784   1.327       .  A
N772        N788   1.315       .  A
N772       Co781   2.090       .  S
C773        N777   1.354       .  A
C773        C787   1.448   1_455  S
C773        C863   1.468       .  S
C774        C793   1.456       .  S
C774        H778   1.081   1_655  S
N775        C786   1.354       .  A
N775       Co785   2.110       .  S
C779        N795   1.353   1_455  A
C779        C791   1.454       .  S
C779        C850   1.471       .  S
Co781      Cl792   2.430       .  S
N782        C793   1.355       .  A
C783        C960   1.479       .  S
Co785      Cl792   2.479   1_655  S
C793       C1483   1.488       .  S
C796        N814   1.352       .  A
C796        C833   1.458       .  S
C796       C1283   1.475       .  S
N797        N814   1.326       .  A
N797        N819   1.322       .  A
N797       Co834   2.093       .  S
C798        N823   1.337       .  A
C798        C836   1.455       .  S
C798        H843   1.080       .  S
H799        C840   1.081       .  S
C800        N824   1.346       .  A
C800        C804   1.471       .  S
C800        H829   1.082       .  S
Co801       N819   2.083       .  S
Co801       N809   2.089       .  S
Co801       N841   2.078       .  S
Co801       N817   2.095       .  S
Co801      Cl845   2.471       .  S
N802        C840   1.333   1_455  A
N802        N809   1.315       .  A
N802       Co803   2.045   1_455  S
Co803       N806   2.093       .  S
Co803       N823   2.073   1_655  S
Co803       N810   2.040       .  S
Co803      Cl845   2.415   1_655  S
C804        N842   1.347       .  A
C804        C883   1.484       .  S
N805        N812   1.321       .  A
N805        N835   1.329       .  A
N805       Co838   2.109       .  S
N806        N824   1.324       .  A
N806        N842   1.322       .  A
N807        C836   1.356       .  A
N807        N817   1.327       .  A
H808        C833   1.082       .  S
N809        N830   1.326       .  A
N810        N828   1.315       .  A
N810        N815   1.313       .  A
C811        N815   1.337       .  A
C811        C839   1.476       .  S
C811       C1003   1.468       .  S
N812        C827   1.339       .  A
N812       Co834   2.066   1_655  S
C813        N841   1.343       .  A
C813        C816   1.465       .  S
C813        H847   1.082       .  S
C816        N837   1.349       .  A
C816        C893   1.483       .  S
N817        N823   1.318       .  A
N818        C844   1.331       .  A
N818        N820   1.324   1_455  A
N818       Co834   2.070       .  S
N819        C833   1.338       .  A
N820        N848   1.326       .  A
N820       Co838   2.102       .  S
H821        C844   1.081       .  S
H822        C839   1.082       .  S
N824       Co838   2.104       .  S
N825        N837   1.324       .  A
N825        N841   1.316       .  A
N825       Co834   2.081       .  S
C826        N830   1.354       .  A
C826        C840   1.451   1_455  S
C826        C853   1.470       .  S
C827        C846   1.456       .  S
C827        H831   1.081   1_655  S
N828        C839   1.352       .  A
N828       Co838   2.107       .  S
C832        N848   1.355   1_455  A
C832        C844   1.450       .  S
C832        C860   1.469       .  S
Co834      Cl845   2.424       .  S
N835        C846   1.357       .  A
C836        C943   1.480       .  S
Co838      Cl845   2.482   1_655  S
C846       C1403   1.491       .  S
C849        H855   1.081       .  S
C849        C850   1.406       .  A
C849        C854   1.394       .  A
C850        C851   1.400   1_455  A
C851        H856   1.083       .  S
C851        C852   1.394       .  A
C852        H857   1.081       .  S
C852        C853   1.406   1_655  A
C853        C854   1.400       .  A
C854        H858   1.084       .  S
C859        H865   1.083       .  S
C859        C860   1.399   1_655  A
C859        C864   1.394   1_565  A
C860        C861   1.407       .  A
C861        H866   1.081       .  S
C861        C862   1.393   1_565  A
C862        H867   1.084       .  S
C862        C863   1.399       .  A
C863        C864   1.407   1_455  A
C864        H868   1.081       .  S
C869        H875   1.083       .  S
C869        C870   1.407       .  A
C869        C874   1.402       .  A
C870        C871   1.406       .  A
C871        H876   1.082       .  S
C871        C872   1.406       .  A
C872        H877   1.083       .  S
C872        C873   1.408       .  A
C873        C874   1.405       .  A
C874        H878   1.082       .  S
C879        H885   1.083       .  S
C879        C880   1.408       .  A
C879        C884   1.399       .  A
C880        C881   1.403       .  A
C881        H886   1.082       .  S
C881        C882   1.402       .  A
C882        H887   1.083       .  S
C882        C883   1.409       .  A
C883        C884   1.402       .  A
C884        H888   1.082       .  S
C889        H895   1.083       .  S
C889        C890   1.406       .  A
C889        C894   1.400       .  A
C890        C891   1.405       .  A
C891        H896   1.082       .  S
C891        C892   1.401       .  A
C892        H897   1.083       .  S
C892        C893   1.407       .  A
C893        C894   1.404       .  A
C894        H898   1.082       .  S
C899        H905   1.083       .  S
C899        C900   1.398       .  A
C899        C904   1.392       .  A
C900        C901   1.406       .  A
C901        H906   1.082       .  S
C901        C902   1.389       .  A
C902        H907   1.083       .  S
C902        C903   1.397       .  A
C903        C904   1.406       .  A
C904        H908   1.082       .  S
C909        H915   1.082       .  S
C909        C910   1.406       .  A
C909        C914   1.390       .  A
C910        C911   1.398       .  A
C911        H916   1.083       .  S
C911        C912   1.391       .  A
C912        H917   1.082       .  S
C912        C913   1.406       .  A
C913        C914   1.397       .  A
C914        H918   1.083       .  S
C919        H925   1.083       .  S
C919        C920   1.408       .  A
C919        C924   1.403       .  A
C920        C921   1.405       .  A
C921        H926   1.082       .  S
C921        C922   1.403       .  A
C922        H927   1.083       .  S
C922        C923   1.408       .  A
C923        C924   1.405       .  A
C924        H928   1.082       .  S
C929        H935   1.083       .  S
C929        C930   1.402       .  A
C929        C934   1.403       .  A
C930        C931   1.411   1_565  A
C931        H936   1.079       .  S
C931        C932   1.397       .  A
C932        H937   1.084       .  S
C932        C933   1.397       .  A
C933        C934   1.410   1_545  A
C934        H938   1.083       .  S
C939        H945   1.083       .  S
C939        C940   1.402       .  A
C939        C944   1.399       .  A
C940        C941   1.409       .  A
C941        H946   1.081       .  S
C941        C942   1.397       .  A
C942        H947   1.083       .  S
C942        C943   1.401       .  A
C943        C944   1.408       .  A
C944        H948   1.082       .  S
C949        H955   1.083       .  S
C949        C950   1.402       .  A
C949        C954   1.398       .  A
C950        C951   1.409       .  A
C951        H956   1.081       .  S
C951        C952   1.398       .  A
C952        H957   1.084       .  S
C952        C953   1.401       .  A
C953        C954   1.407       .  A
C954        H958   1.084       .  S
C959        H965   1.083       .  S
C959        C960   1.400       .  A
C959        C964   1.386       .  A
C960        C961   1.409       .  A
C961        H966   1.083       .  S
C961        C962   1.411       .  A
C962        H967   1.083       .  S
C962        C963   1.406       .  A
C963        C964   1.404       .  A
C964        H968   1.082       .  S
C969        H975   1.083       .  S
C969        C970   1.403       .  A
C969        C974   1.402       .  A
C970        C971   1.406       .  A
C971        H976   1.083       .  S
C971        C972   1.400       .  A
C972        H977   1.083       .  S
C972        C973   1.403       .  A
C973        C974   1.408       .  A
C974        H978   1.083       .  S
C979        H985   1.083       .  S
C979        C980   1.406       .  A
C979        C984   1.394       .  A
C980        C981   1.398       .  A
C981        H986   1.083       .  S
C981        C982   1.395       .  A
C982        H987   1.082       .  S
C982        C983   1.408       .  A
C983        C984   1.399       .  A
C984        H988   1.083       .  S
C989        H995   1.083       .  S
C989        C990   1.403       .  A
C989        C994   1.401       .  A
C990        C991   1.410       .  A
C991        H996   1.082       .  S
C991        C992   1.401       .  A
C992        H997   1.083       .  S
C992        C993   1.403       .  A
C993        C994   1.410       .  A
C994        H998   1.082       .  S
C999       H1005   1.083       .  S
C999       C1000   1.403       .  A
C999       C1004   1.402       .  A
C1000      C1001   1.409       .  A
C1001      H1006   1.080       .  S
C1001      C1002   1.399       .  A
C1002      H1007   1.084       .  S
C1002      C1003   1.399       .  A
C1003      C1004   1.409       .  A
C1004      H1008   1.083       .  S
C1009      H1015   1.083       .  S
C1009      C1010   1.402   1_455  A
C1009      C1014   1.398       .  A
C1010      C1011   1.409       .  A
C1011      H1016   1.083       .  S
C1011      C1012   1.405   1_655  A
C1012      H1017   1.083   1_455  S
C1012      C1013   1.403       .  A
C1013      C1014   1.405       .  A
C1014      H1018   1.084       .  S
C1019      H1025   1.083       .  S
C1019      C1020   1.407       .  A
C1019      C1024   1.403       .  A
C1020      C1021   1.404       .  A
C1021      H1026   1.081       .  S
C1021      C1022   1.400       .  A
C1022      H1027   1.083       .  S
C1022      C1023   1.407       .  A
C1023      C1024   1.405       .  A
C1024      H1028   1.081       .  S
C1029      H1035   1.082       .  S
C1029      C1030   1.407       .  A
C1029      C1034   1.398       .  A
C1030      C1031   1.404       .  A
C1031      H1036   1.083       .  S
C1031      C1032   1.397       .  A
C1032      H1037   1.082       .  S
C1032      C1033   1.406       .  A
C1033      C1034   1.403       .  A
C1034      H1038   1.083       .  S
C1039      H1045   1.083       .  S
C1039      C1040   1.404       .  A
C1039      C1044   1.403       .  A
C1040      C1041   1.408       .  A
C1041      H1046   1.081       .  S
C1041      C1042   1.400       .  A
C1042      H1047   1.084       .  S
C1042      C1043   1.401       .  A
C1043      C1044   1.409       .  A
C1044      H1048   1.083       .  S
C1049      H1055   1.083       .  S
C1049      C1050   1.410   1_565  A
C1049      C1054   1.406   1_655  A
C1050      C1051   1.405   1_655  A
C1051      H1056   1.082       .  S
C1051      C1052   1.403       .  A
C1052      H1057   1.083       .  S
C1052      C1053   1.409   1_545  A
C1053      C1054   1.406       .  A
C1054      H1058   1.081       .  S
C1059      H1065   1.083       .  S
C1059      C1060   1.406       .  A
C1059      C1064   1.391       .  A
C1060      C1061   1.397       .  A
C1061      H1066   1.083       .  S
C1061      C1062   1.390       .  A
C1062      H1067   1.082       .  S
C1062      C1063   1.406       .  A
C1063      C1064   1.397       .  A
C1064      H1068   1.083       .  S
C1069      H1075   1.083       .  S
C1069      C1070   1.398       .  A
C1069      C1074   1.392       .  A
C1070      C1071   1.405       .  A
C1071      H1076   1.082       .  S
C1071      C1072   1.388       .  A
C1072      H1077   1.083       .  S
C1072      C1073   1.396       .  A
C1073      C1074   1.405       .  A
C1074      H1078   1.083       .  S
C1079      H1085   1.083       .  S
C1079      C1080   1.406       .  A
C1079      C1084   1.404       .  A
C1080      C1081   1.405       .  A
C1081      H1086   1.082       .  S
C1081      C1082   1.400       .  A
C1082      H1087   1.083       .  S
C1082      C1083   1.405       .  A
C1083      C1084   1.405       .  A
C1084      H1088   1.083       .  S
C1089      H1095   1.083       .  S
C1089      C1090   1.398       .  A
C1089      C1094   1.387       .  A
C1090      C1091   1.407       .  A
C1091      H1096   1.083       .  S
C1091      C1092   1.406       .  A
C1092      H1097   1.082       .  S
C1092      C1093   1.405       .  A
C1093      C1094   1.405       .  A
C1094      H1098   1.083       .  S
C1099      H1105   1.084       .  S
C1099      C1100   1.406       .  A
C1099      C1104   1.395       .  A
C1100      C1101   1.402       .  A
C1101      H1106   1.082       .  S
C1101      C1102   1.400       .  A
C1102      H1107   1.082       .  S
C1102      C1103   1.410       .  A
C1103      C1104   1.402       .  A
C1104      H1108   1.083       .  S
C1109      H1115   1.083       .  S
C1109      C1110   1.408       .  A
C1109      C1114   1.398       .  A
C1110      C1111   1.400       .  A
C1111      H1116   1.082       .  S
C1111      C1112   1.395       .  A
C1112      H1117   1.081       .  S
C1112      C1113   1.409       .  A
C1113      C1114   1.401       .  A
C1114      H1118   1.083       .  S
C1119      H1125   1.083       .  S
C1119      C1120   1.403       .  A
C1119      C1124   1.404       .  A
C1120      C1121   1.409       .  A
C1121      H1126   1.083       .  S
C1121      C1122   1.399       .  A
C1122      H1127   1.084       .  S
C1122      C1123   1.399       .  A
C1123      C1124   1.409       .  A
C1124      H1128   1.084       .  S
C1129      H1135   1.083       .  S
C1129      C1130   1.408   1_655  A
C1129      C1134   1.396       .  A
C1130      C1131   1.400       .  A
C1131      H1136   1.083       .  S
C1131      C1132   1.397       .  A
C1132      H1137   1.084       .  S
C1132      C1133   1.405   1_455  A
C1133      C1134   1.398       .  A
C1134      H1138   1.083       .  S
C1139      H1145   1.083       .  S
C1139      C1140   1.403   1_655  A
C1139      C1144   1.401       .  A
C1140      C1141   1.408       .  A
C1141      H1146   1.083       .  S
C1141      C1142   1.405       .  A
C1142      H1147   1.083       .  S
C1142      C1143   1.403       .  A
C1143      C1144   1.406   1_455  A
C1144      H1148   1.083       .  S
C1149      H1155   1.083       .  S
C1149      C1150   1.410       .  A
C1149      C1154   1.404       .  A
C1150      C1151   1.402       .  A
C1151      H1156   1.082       .  S
C1151      C1152   1.401       .  A
C1152      H1157   1.084       .  S
C1152      C1153   1.408       .  A
C1153      C1154   1.403       .  A
C1154      H1158   1.083       .  S
C1159      H1165   1.083       .  S
C1159      C1160   1.406       .  A
C1159      C1164   1.389       .  A
C1160      C1161   1.403       .  A
C1161      H1166   1.083       .  S
C1161      C1162   1.403       .  A
C1162      H1167   1.083       .  S
C1162      C1163   1.407       .  A
C1163      C1164   1.397       .  A
C1164      H1168   1.083       .  S
C1169      H1175   1.082       .  S
C1169      C1170   1.402   1_554  A
C1169      C1174   1.399       .  A
C1170      C1171   1.408       .  A
C1171      H1176   1.081       .  S
C1171      C1172   1.396       .  A
C1172      H1177   1.083       .  S
C1172      C1173   1.401       .  A
C1173      C1174   1.408   1_556  A
C1174      H1178   1.082       .  S
C1179      H1185   1.083       .  S
C1179      C1180   1.404       .  A
C1179      C1184   1.405       .  A
C1180      C1181   1.408       .  A
C1181      H1186   1.083       .  S
C1181      C1182   1.403       .  A
C1182      H1187   1.083       .  S
C1182      C1183   1.404       .  A
C1183      C1184   1.408       .  A
C1184      H1188   1.083       .  S
C1189      H1195   1.083       .  S
C1189      C1190   1.409       .  A
C1189      C1194   1.401       .  A
C1190      C1191   1.404       .  A
C1191      H1196   1.082       .  S
C1191      C1192   1.407       .  A
C1192      H1197   1.084       .  S
C1192      C1193   1.411       .  A
C1193      C1194   1.402       .  A
C1194      H1198   1.084       .  S
C1199      H1205   1.083       .  S
C1199      C1200   1.410       .  A
C1199      C1204   1.401       .  A
C1200      C1201   1.402       .  A
C1201      H1206   1.082       .  S
C1201      C1202   1.398       .  A
C1202      H1207   1.084       .  S
C1202      C1203   1.407       .  A
C1203      C1204   1.401       .  A
C1204      H1208   1.083       .  S
C1209      H1215   1.083       .  S
C1209      C1210   1.403       .  A
C1209      C1214   1.402       .  A
C1210      C1211   1.409   1_556  A
C1211      H1216   1.081       .  S
C1211      C1212   1.400       .  A
C1212      H1217   1.083       .  S
C1212      C1213   1.402   1_554  A
C1213      C1214   1.410       .  A
C1214      H1218   1.082       .  S
C1219      H1225   1.083       .  S
C1219      C1220   1.403       .  A
C1219      C1224   1.402       .  A
C1220      C1221   1.406       .  A
C1221      H1226   1.083       .  S
C1221      C1222   1.400       .  A
C1222      H1227   1.083       .  S
C1222      C1223   1.403       .  A
C1223      C1224   1.407       .  A
C1224      H1228   1.083       .  S
C1229      H1235   1.083       .  S
C1229      C1230   1.406       .  A
C1229      C1234   1.397   1_545  A
C1230      C1231   1.399       .  A
C1231      H1236   1.083       .  S
C1231      C1232   1.395   1_545  A
C1232      H1237   1.084       .  S
C1232      C1233   1.406       .  A
C1233      C1234   1.399       .  A
C1234      H1238   1.083       .  S
C1239      H1245   1.083       .  S
C1239      C1240   1.401       .  A
C1239      C1244   1.396       .  A
C1240      C1241   1.405       .  A
C1241      H1246   1.083       .  S
C1241      C1242   1.396       .  A
C1242      H1247   1.083       .  S
C1242      C1243   1.401       .  A
C1243      C1244   1.405       .  A
C1244      H1248   1.083       .  S
C1249      H1255   1.083       .  S
C1249      C1250   1.408       .  A
C1249      C1254   1.404       .  A
C1250      C1251   1.401       .  A
C1251      H1256   1.081       .  S
C1251      C1252   1.389       .  A
C1252      H1257   1.083       .  S
C1252      C1253   1.405       .  A
C1253      C1254   1.404       .  A
C1254      H1258   1.082       .  S
C1259      H1265   1.083       .  S
C1259      C1260   1.409       .  A
C1259      C1264   1.398       .  A
C1260      C1261   1.403       .  A
C1261      H1266   1.082       .  S
C1261      C1262   1.405       .  A
C1262      H1267   1.084       .  S
C1262      C1263   1.410       .  A
C1263      C1264   1.398       .  A
C1264      H1268   1.084       .  S
C1269      H1275   1.083       .  S
C1269      C1270   1.402       .  A
C1269      C1274   1.399       .  A
C1270      C1271   1.404       .  A
C1271      H1276   1.084       .  S
C1271      C1272   1.397       .  A
C1272      H1277   1.083       .  S
C1272      C1273   1.403       .  A
C1273      C1274   1.408       .  A
C1274      H1278   1.082       .  S
C1279      H1285   1.083       .  S
C1279      C1280   1.405       .  A
C1279      C1284   1.401       .  A
C1280      C1281   1.403       .  A
C1281      H1286   1.083       .  S
C1281      C1282   1.395       .  A
C1282      H1287   1.082       .  S
C1282      C1283   1.403       .  A
C1283      C1284   1.404       .  A
C1284      H1288   1.083       .  S
C1289      H1295   1.083       .  S
C1289      C1290   1.409       .  A
C1289      C1294   1.395       .  A
C1290      C1291   1.401       .  A
C1291      H1296   1.082       .  S
C1291      C1292   1.401       .  A
C1292      H1297   1.083       .  S
C1292      C1293   1.409       .  A
C1293      C1294   1.396       .  A
C1294      H1298   1.083       .  S
C1299      H1305   1.083       .  S
C1299      C1300   1.409       .  A
C1299      C1304   1.394       .  A
C1300      C1301   1.401       .  A
C1301      H1306   1.082       .  S
C1301      C1302   1.401       .  A
C1302      H1307   1.083   1_545  S
C1302      C1303   1.411   1_545  A
C1303      C1304   1.399   1_565  A
C1304      H1308   1.082       .  S
C1309      H1315   1.083       .  S
C1309      C1310   1.408       .  A
C1309      C1314   1.406       .  A
C1310      C1311   1.405       .  A
C1311      H1316   1.083       .  S
C1311      C1312   1.406       .  A
C1312      H1317   1.083       .  S
C1312      C1313   1.408       .  A
C1313      C1314   1.405       .  A
C1314      H1318   1.083       .  S
C1319      H1325   1.083       .  S
C1319      C1320   1.399       .  A
C1319      C1324   1.395       .  A
C1320      C1321   1.404       .  A
C1321      H1326   1.084       .  S
C1321      C1322   1.394       .  A
C1322      H1327   1.083       .  S
C1322      C1323   1.399       .  A
C1323      C1324   1.405       .  A
C1324      H1328   1.083       .  S
C1329      H1335   1.081       .  S
C1329      C1330   1.401       .  A
C1329      C1334   1.388       .  A
C1330      C1331   1.406       .  A
C1331      H1336   1.083       .  S
C1331      C1332   1.402       .  A
C1332      H1337   1.083       .  S
C1332      C1333   1.405       .  A
C1333      C1334   1.404       .  A
C1334      H1338   1.081       .  S
C1339      H1345   1.084       .  S
C1339      C1340   1.400       .  A
C1339      C1344   1.399       .  A
C1340      C1341   1.409       .  A
C1341      H1346   1.084       .  S
C1341      C1342   1.404       .  A
C1342      H1347   1.083       .  S
C1342      C1343   1.404       .  A
C1343      C1344   1.409       .  A
C1344      H1348   1.081       .  S
C1349      H1355   1.084       .  S
C1349      C1350   1.410       .  A
C1349      C1354   1.404       .  A
C1350      C1351   1.399       .  A
C1351      H1356   1.084       .  S
C1351      C1352   1.398       .  A
C1352      H1357   1.081       .  S
C1352      C1353   1.409       .  A
C1353      C1354   1.404       .  A
C1354      H1358   1.083       .  S
C1359      H1365   1.083       .  S
C1359      C1360   1.404       .  A
C1359      C1364   1.400   1_565  A
C1360      C1361   1.408       .  A
C1361      H1366   1.082       .  S
C1361      C1362   1.400       .  A
C1362      H1367   1.083       .  S
C1362      C1363   1.403   1_565  A
C1363      C1364   1.407       .  A
C1364      H1368   1.084       .  S
C1369      H1375   1.083       .  S
C1369      C1370   1.407       .  A
C1369      C1374   1.400       .  A
C1370      C1371   1.401       .  A
C1371      H1376   1.082       .  S
C1371      C1372   1.391   1_655  A
C1372      H1377   1.081       .  S
C1372      C1373   1.404       .  A
C1373      C1374   1.403   1_455  A
C1374      H1378   1.083   1_655  S
C1379      H1385   1.083       .  S
C1379      C1380   1.407   1_545  A
C1379      C1384   1.405       .  A
C1380      C1381   1.399       .  A
C1381      H1386   1.083       .  S
C1381      C1382   1.393       .  A
C1382      H1387   1.083       .  S
C1382      C1383   1.405   1_565  A
C1383      C1384   1.404       .  A
C1384      H1388   1.083       .  S
C1389      H1395   1.084       .  S
C1389      C1390   1.400       .  A
C1389      C1394   1.390       .  A
C1390      C1391   1.405       .  A
C1391      H1396   1.083       .  S
C1391      C1392   1.405       .  A
C1392      H1397   1.083       .  S
C1392      C1393   1.408       .  A
C1393      C1394   1.403       .  A
C1394      H1398   1.082       .  S
C1399      H1405   1.084       .  S
C1399      C1400   1.407       .  A
C1399      C1404   1.401       .  A
C1400      C1401   1.404       .  A
C1401      H1406   1.083       .  S
C1401      C1402   1.406       .  A
C1402      H1407   1.082       .  S
C1402      C1403   1.411       .  A
C1403      C1404   1.404       .  A
C1404      H1408   1.083       .  S
C1409      H1415   1.082       .  S
C1409      C1410   1.405       .  A
C1409      C1414   1.397       .  A
C1410      C1411   1.405       .  A
C1411      H1416   1.083       .  S
C1411      C1412   1.404       .  A
C1412      H1417   1.083       .  S
C1412      C1413   1.407       .  A
C1413      C1414   1.403       .  A
C1414      H1418   1.083       .  S
C1419      H1425   1.083       .  S
C1419      C1420   1.405       .  A
C1419      C1424   1.401       .  A
C1420      C1421   1.403       .  A
C1421      H1426   1.082       .  S
C1421      C1422   1.390       .  A
C1422      H1427   1.081       .  S
C1422      C1423   1.403       .  A
C1423      C1424   1.406       .  A
C1424      H1428   1.083       .  S
C1429      H1435   1.082       .  S
C1429      C1430   1.405   1_455  A
C1429      C1434   1.401       .  A
C1430      C1431   1.407       .  A
C1431      H1436   1.083       .  S
C1431      C1432   1.406   1_655  A
C1432      H1437   1.083   1_455  S
C1432      C1433   1.405       .  A
C1433      C1434   1.406       .  A
C1434      H1438   1.083       .  S
C1439      H1445   1.082       .  S
C1439      C1440   1.406       .  A
C1439      C1444   1.394       .  A
C1440      C1441   1.397       .  A
C1441      H1446   1.083       .  S
C1441      C1442   1.389       .  A
C1442      H1447   1.082       .  S
C1442      C1443   1.405       .  A
C1443      C1444   1.399       .  A
C1444      H1448   1.083       .  S
C1449      H1455   1.084       .  S
C1449      C1450   1.398       .  A
C1449      C1454   1.390       .  A
C1450      C1451   1.406       .  A
C1451      H1456   1.081       .  S
C1451      C1452   1.390       .  A
C1452      H1457   1.084       .  S
C1452      C1453   1.397       .  A
C1453      C1454   1.405       .  A
C1454      H1458   1.081       .  S
C1459      H1465   1.083       .  S
C1459      C1460   1.409       .  A
C1459      C1464   1.406       .  A
C1460      C1461   1.401       .  A
C1461      H1466   1.082       .  S
C1461      C1462   1.398       .  A
C1462      H1467   1.081       .  S
C1462      C1463   1.409       .  A
C1463      C1464   1.405       .  A
C1464      H1468   1.083       .  S
C1469      H1475   1.084       .  S
C1469      C1470   1.406       .  A
C1469      C1474   1.394       .  A
C1470      C1471   1.402       .  A
C1471      H1476   1.083       .  S
C1471      C1472   1.403       .  A
C1472      H1477   1.083       .  S
C1472      C1473   1.404       .  A
C1473      C1474   1.398       .  A
C1474      H1478   1.083       .  S
C1479      H1485   1.083       .  S
C1479      C1480   1.404       .  A
C1479      C1484   1.403       .  A
C1480      C1481   1.406       .  A
C1481      H1486   1.084       .  S
C1481      C1482   1.400       .  A
C1482      H1487   1.083       .  S
C1482      C1483   1.404       .  A
C1483      C1484   1.409       .  A
C1484      H1488   1.082       .  S
