geometry optimzed in LAMMPS
_audit_creation_date              2020-11-30 
_audit_creation_method            'lammps2cif' 
_symmetry_space_group_name_H-M    'P1' 
_symmetry_Int_Tables_number       1 
_symmetry_cell_setting            triclinic 
loop_ 
_symmetry_equiv_pos_as_xyz 
  x,y,z 
_cell_length_a                    67.19194235 
_cell_length_b                    66.99526577998085 
_cell_length_c                    105.31797943706107 
_cell_angle_alpha                 90.00073090858903 
_cell_angle_beta                  89.99927190203493 
_cell_angle_gamma                 90.0405277357867 
loop_ 
_atom_site_label 
_atom_site_type_symbol 
_atom_site_fract_x 
_atom_site_fract_y 
_atom_site_fract_z 
_atom_site_charge 
N1          N  0.01040050  0.67063888  0.97867292    -0.26600
N2          N  0.00834809  0.65390127  0.97211784    -0.34500
C3          C  0.00869326  0.65812496  0.95965500     0.01700
C4          C  0.01111359  0.67847876  0.95815817     0.07700
C5          C  0.01212476  0.68597150  0.97043761    -0.05400
H6          H  0.00696007  0.64715580  0.95219501     0.08400
H7          H  0.01386928  0.70143141  0.97318601     0.09600
Cu8        Cu  0.00505883  0.62565398  0.97985943     0.44200
Cu9        Cu  0.01001095  0.67191782  0.99855643     0.42000
Cu10       Cu  0.00660627  0.62321107  0.01346519     0.43900
N11         N  0.00418750  0.59889990  0.98968795    -0.34000
N12         N  0.00548566  0.59809778  0.00217578    -0.28300
C13         C  0.00527712  0.57893583  0.00589633    -0.04400
C14         C  0.00349451  0.56698208  0.99522603     0.07800
C15         C  0.00285016  0.58021132  0.98509696     0.01600
H16         H  0.00636570  0.57409843  0.01567082     0.09300
H17         H  0.00136398  0.57656496  0.97513651     0.08400
N18         N  0.00637939  0.64973511  0.02340198    -0.35500
N19         N  0.00768759  0.66766563  0.01821305    -0.27700
C20         C  0.00711596  0.68143827  0.02756733    -0.02900
C21         C  0.00543126  0.67156853  0.03911842     0.05700
C22         C  0.00493527  0.65154538  0.03605394     0.03800
H23         H  0.00807930  0.69739069  0.02609749     0.08900
H24         H  0.00365463  0.63912749  0.04257275     0.07800
N25         N  0.67767590  0.97635906  0.01975063    -0.26600
N26         N  0.66059098  0.97550222  0.02594616    -0.34500
C27         C  0.66425111  0.97414700  0.03843187     0.01700
C28         C  0.68461420  0.97410629  0.04021536     0.07700
C29         C  0.69271555  0.97553937  0.02816734    -0.05400
H30         H  0.65289387  0.97381416  0.04571225     0.08400
H31         H  0.70833369  0.97621335  0.02570611     0.09600
Cu32       Cu  0.63293236  0.97750765  0.01752487     0.44200
Cu33       Cu  0.67954269  0.97940481  0.00024670     0.42000
Cu34       Cu  0.63198273  0.98477548  0.98385616     0.43900
N35         N  0.60696798  0.98206558  0.00746727    -0.34000
N36         N  0.60657014  0.98505300  0.99507341    -0.28300
C37         C  0.58759032  0.98775932  0.99140481    -0.04400
C38         C  0.57546890  0.98633528  0.00201662     0.07800
C39         C  0.58829730  0.98272003  0.01202972     0.01600
H40         H  0.58295105  0.99048087  0.98172246     0.09300
H41         H  0.58434320  0.98047350  0.02188531     0.08400
N42         N  0.65940909  0.98355239  0.97479474    -0.35500
N43         N  0.67666271  0.98192849  0.98075974    -0.27700
C44         C  0.69145211  0.98193151  0.97215940    -0.02900
C45         C  0.68308383  0.98350504  0.96022463     0.05700
C46         C  0.66277457  0.98447625  0.96222524     0.03800
H47         H  0.70711402  0.98078063  0.97442621     0.08900
H48         H  0.65130629  0.98597646  0.95507848     0.07800
N49         N  0.82506407  0.49659204  0.52064706    -0.26600
N50         N  0.84256270  0.49939562  0.52614684    -0.34500
C51         C  0.84022173  0.50014635  0.53877864     0.01700
C52         C  0.82035155  0.49751667  0.54157570     0.07700
C53         C  0.81105370  0.49545512  0.52984439    -0.05400
H54         H  0.85233769  0.50135936  0.54550330     0.08400
H55         H  0.79548629  0.49226260  0.52818119     0.09600
Cu56       Cu  0.86985968  0.49842050  0.51722144     0.44200
Cu57       Cu  0.82202192  0.49232922  0.50090149     0.42000
Cu58       Cu  0.86960419  0.47744985  0.48684820     0.43900
N59         N  0.89578937  0.49097283  0.50788770    -0.34000
N60         N  0.89559665  0.48230212  0.49665011    -0.28300
C61         C  0.91438981  0.47956546  0.49268913    -0.04400
C62         C  0.92705301  0.48692614  0.50193011     0.07800
C63         C  0.91474604  0.49398364  0.51146705     0.01600
H64         H  0.91849553  0.47325045  0.48360527     0.09300
H65         H  0.91921855  0.50129473  0.52017179     0.08400
N66         N  0.84380143  0.48133746  0.47667281    -0.35500
N67         N  0.82648658  0.48721546  0.48134898    -0.27700
C68         C  0.81376988  0.48989637  0.47154848    -0.02900
C69         C  0.82377298  0.48565926  0.46029407     0.05700
C70         C  0.84266407  0.48020911  0.46398628     0.03800
H71         H  0.79858670  0.49504802  0.47249184     0.08900
H72         H  0.85492905  0.47613812  0.45785522     0.07800
N73         N  0.50983321  0.81296754  0.52056362    -0.26600
N74         N  0.51108787  0.83064114  0.52614333    -0.34500
C75         C  0.51154830  0.82819655  0.53880722     0.01700
C76         C  0.51043447  0.80806935  0.54143338     0.07700
C77         C  0.50925545  0.79878306  0.52967479    -0.05400
H78         H  0.51214156  0.84025810  0.54562817     0.08400
H79         H  0.50790530  0.78293731  0.52789716     0.09600
Cu80       Cu  0.51103394  0.85779561  0.51676671     0.44200
Cu81       Cu  0.50884951  0.80932741  0.50071335     0.42000
Cu82       Cu  0.51104204  0.85669866  0.48318894     0.43900
N83         N  0.51034845  0.88350209  0.50588178    -0.34000
N84         N  0.51072540  0.88316987  0.49334974    -0.28300
C85         C  0.50997052  0.90202801  0.48896255    -0.04400
C86         C  0.50893778  0.91480606  0.49927653     0.07800
C87         C  0.50920734  0.90254096  0.50984587     0.01600
H88         H  0.50975369  0.90610976  0.47902464     0.09300
H89         H  0.50853834  0.90712189  0.51968731     0.08400
N90         N  0.50929270  0.82884819  0.47470223    -0.35500
N91         N  0.50849360  0.81155348  0.48076899    -0.27700
C92         C  0.50712668  0.79678485  0.47205853    -0.02900
C93         C  0.50690180  0.80531069  0.46002067     0.05700
C94         C  0.50835945  0.82559730  0.46213753     0.03800
H95         H  0.50605984  0.78106494  0.47430711     0.08900
H96         H  0.50865907  0.83723602  0.45501714     0.07800
N97         N  0.51045524  0.16928304  0.48305549    -0.26600
N98         N  0.50902767  0.15215085  0.47685529    -0.34500
C99         C  0.50816389  0.15584176  0.46432411     0.01700
C100        C  0.50911248  0.17624230  0.46242520     0.07700
C101        C  0.51064553  0.18434174  0.47452263    -0.05400
H102        H  0.50678816  0.14446443  0.45708530     0.08400
H103        H  0.51137497  0.20001686  0.47694616     0.09600
Cu104      Cu  0.50761699  0.12414268  0.48533457     0.44200
Cu105      Cu  0.51090492  0.17110547  0.50292688     0.42000
Cu106      Cu  0.50355926  0.12322261  0.51901281     0.43900
N107        N  0.50533689  0.09777257  0.49564786    -0.34000
N108        N  0.50368097  0.09752625  0.50814191    -0.28300
C109        C  0.50269419  0.07849543  0.51215624    -0.04400
C110        C  0.50378068  0.06609449  0.50166646     0.07800
C111        C  0.50542370  0.07884905  0.49135030     0.01600
H112        H  0.50134770  0.07402278  0.52198970     0.09300
H113        H  0.50685092  0.07466492  0.48147059     0.08400
N114        N  0.50591505  0.15030935  0.52831053    -0.35500
N115        N  0.50900983  0.16768680  0.52267478    -0.27700
C116        C  0.51038930  0.18192610  0.53168236    -0.02900
C117        C  0.50804307  0.17305002  0.54351095     0.05700
C118        C  0.50515122  0.15301973  0.54093944     0.03800
H119        H  0.51305560  0.19756784  0.52977594     0.08900
H120        H  0.50263701  0.14120474  0.54775690     0.07800
N121        N  0.17876394  0.48536419  0.47984382    -0.26600
N122        N  0.16124767  0.48396496  0.47418736    -0.34500
C123        C  0.16396034  0.48189150  0.46162987     0.01700
C124        C  0.18413605  0.48211419  0.45919405     0.07700
C125        C  0.19315456  0.48440918  0.47093817    -0.05400
H126        H  0.15208140  0.48099670  0.45471673     0.08400
H127        H  0.20893246  0.48561351  0.47283581     0.09600
Cu128      Cu  0.13424003  0.48690901  0.48336461     0.44200
Cu129      Cu  0.18172172  0.48948311  0.49936696     0.42000
Cu130      Cu  0.13514927  0.50207612  0.51588558     0.43900
N131        N  0.10874759  0.49274922  0.49366742    -0.34000
N132        N  0.10889990  0.49860613  0.50564290    -0.28300
C133        C  0.08997382  0.50066693  0.50965131    -0.04400
C134        C  0.07736127  0.49584410  0.49968386     0.07800
C135        C  0.08982972  0.49098330  0.48970406     0.01600
H136        H  0.08570630  0.50481092  0.51919875     0.09300
H137        H  0.08547786  0.48628453  0.48027545     0.08400
N138        N  0.16297552  0.50075554  0.52452350    -0.35500
N139        N  0.17965388  0.49539769  0.51875490    -0.27700
C140        C  0.19432362  0.49417464  0.52745287    -0.02900
C141        C  0.18651933  0.49925077  0.53917264     0.05700
C142        C  0.16667316  0.50332043  0.53696313     0.03800
H143        H  0.20941384  0.48952610  0.52544439     0.08900
H144        H  0.15552249  0.50698989  0.54399532     0.07800
N145        N  0.74737470  0.02113065  0.80632707    -0.26600
N146        N  0.74661896  0.03034588  0.81742019    -0.34500
C147        C  0.74729230  0.05015748  0.81559132     0.01700
C148        C  0.74852444  0.05378707  0.80272118     0.07700
C149        C  0.74850759  0.03503667  0.79708608    -0.05400
H150        H  0.74643342  0.06115506  0.82309450     0.08400
H151        H  0.74905189  0.03177891  0.78703128     0.09600
Cu152      Cu  0.74369328  0.01621433  0.83469520     0.44200
Cu153      Cu  0.74605488  0.99001465  0.80464415     0.42000
Cu154      Cu  0.73866852  0.96341326  0.83486291     0.43900
N155        N  0.73991450  0.99998603  0.85113178    -0.34000
N156        N  0.73801805  0.98037031  0.85125383    -0.28300
C157        C  0.73511715  0.97426860  0.86327375    -0.04400
C158        C  0.73515633  0.99092175  0.87103470     0.07800
C159        C  0.73820031  0.00697192  0.86303223     0.01600
H160        H  0.73245955  0.95896778  0.86609309     0.09300
H161        H  0.73859329  0.02259749  0.86561520     0.08400
N162        N  0.74118921  0.94959777  0.81737972    -0.35500
N163        N  0.74380589  0.95896011  0.80643041    -0.27700
C164        C  0.74481269  0.94522812  0.79709863    -0.02900
C165        C  0.74286232  0.92645902  0.80248667     0.05700
C166        C  0.74058872  0.92980833  0.81532637     0.03800
H167        H  0.74691740  0.94862419  0.78714647     0.08900
H168        H  0.73853740  0.91867324  0.82265188     0.07800
N169        N  0.77292261  0.22043412  0.76091322    -0.36000
N170        N  0.77714378  0.26024846  0.75002068    -0.56500
N171        N  0.73716694  0.25722512  0.73959120    -0.35900
N172        N  0.73227487  0.21810261  0.75156596    -0.56500
C173        C  0.78998389  0.22642465  0.76659570     0.27600
C174        C  0.76646594  0.20396958  0.76713024     0.27600
C175        C  0.74109113  0.27673149  0.73724106     0.27600
C176        C  0.71731727  0.25449563  0.73813854     0.27600
C177        C  0.79603495  0.25754176  0.75409592     0.36200
C178        C  0.77723220  0.27691305  0.74276904     0.36300
C179        C  0.73420829  0.19915299  0.75582593     0.36200
C180        C  0.71511588  0.21874755  0.74487713     0.36300
C181        C  0.79450673  0.21349786  0.77646959    -0.21200
C182        C  0.77968592  0.19932594  0.77679789    -0.21200
C183        C  0.72355940  0.28641470  0.73404148    -0.21200
C184        C  0.70859918  0.27240310  0.73457003    -0.21200
C185        C  0.80815275  0.27265172  0.74949028    -0.22300
C186        C  0.79624464  0.28491317  0.74231245    -0.22300
C187        C  0.71808803  0.18776562  0.75196083    -0.22300
C188        C  0.70595164  0.20019601  0.74506493    -0.22300
C189        C  0.80225150  0.24247126  0.76263908    -0.17600
C190        C  0.74964594  0.19230727  0.76384712    -0.17600
C191        C  0.70697111  0.23610365  0.73925147    -0.17600
C192        C  0.76012566  0.28593694  0.73742676    -0.17600
H193        H  0.80729279  0.21406651  0.78271027     0.15300
H194        H  0.77884531  0.18690167  0.78334700     0.15300
H195        H  0.72172018  0.30196566  0.73151612     0.15300
H196        H  0.69305992  0.27512055  0.73249854     0.15300
H197        H  0.82386906  0.27480908  0.75128537     0.13600
H198        H  0.80096845  0.29837743  0.73749383     0.13600
H199        H  0.71522014  0.17220875  0.75405235     0.13600
H200        H  0.69189799  0.19607633  0.74077724     0.13600
H201        H  0.76734130  0.22580192  0.75239090     0.26800
H202        H  0.74763830  0.24602531  0.74080633     0.26800
N203        N  0.77270157  0.76285948  0.75767121    -0.36000
N204        N  0.77565971  0.72111562  0.74994161    -0.56500
N205        N  0.73525194  0.72318156  0.73976650    -0.35900
N206        N  0.73147799  0.76407207  0.74871277    -0.56500
C207        C  0.79041419  0.75804510  0.76299656     0.27600
C208        C  0.76654623  0.78020306  0.76300364     0.27600
C209        C  0.73867661  0.70334873  0.73860833     0.27600
C210        C  0.71551201  0.72618265  0.73795156     0.27600
C211        C  0.79475430  0.72394775  0.75365609     0.36200
C212        C  0.77482533  0.70282985  0.74447773     0.36300
C213        C  0.73393734  0.78351319  0.75176608     0.36200
C214        C  0.71460968  0.76292636  0.74174412     0.36300
C215        C  0.79582381  0.77277557  0.77158334    -0.21200
C216        C  0.78069629  0.78659922  0.77170105    -0.21200
C217        C  0.72092239  0.69371247  0.73579487    -0.21200
C218        C  0.70631708  0.70803663  0.73555897    -0.21200
C219        C  0.80596067  0.70715523  0.75084016    -0.22300
C220        C  0.79336070  0.69379906  0.74506092    -0.22300
C221        C  0.71851002  0.79477013  0.74677466    -0.22300
C222        C  0.70633549  0.78175198  0.74035539    -0.22300
C223        C  0.80211265  0.74099481  0.76013909    -0.17600
C224        C  0.74913732  0.79108146  0.75972516    -0.17600
C225        C  0.70574407  0.74494513  0.73748485    -0.17600
C226        C  0.75748908  0.69378740  0.73933176    -0.17600
H227        H  0.80922467  0.77346349  0.77726666     0.15300
H228        H  0.78033352  0.80000381  0.77743255     0.15300
H229        H  0.71862105  0.67798502  0.73400137     0.15300
H230        H  0.69073534  0.70539455  0.73356464     0.15300
H231        H  0.82156717  0.70468725  0.75283980     0.13600
H232        H  0.79739340  0.67906345  0.74173188     0.13600
H233        H  0.71619137  0.81068334  0.74774760     0.13600
H234        H  0.69273983  0.78565168  0.73543767     0.13600
H235        H  0.76623350  0.75579029  0.74995537     0.26800
H236        H  0.74605492  0.73419652  0.74024074     0.26800
N237        N  0.97217967  0.73351691  0.80335404    -0.26600
N238        N  0.96204219  0.73504969  0.81408619    -0.34500
C239        C  0.94246331  0.73533743  0.81138202     0.01700
C240        C  0.94013997  0.73383183  0.79835121     0.07700
C241        C  0.95928588  0.73267347  0.79356626    -0.05400
H242        H  0.93076601  0.73698337  0.81836285     0.08400
H243        H  0.96354678  0.73206804  0.78366810     0.09600
Cu244      Cu  0.97513213  0.73721007  0.83199614     0.44200
Cu245      Cu  0.00312991  0.73426136  0.80237119     0.42000
Cu246      Cu  0.02884737  0.73771636  0.83250320     0.43900
N247        N  0.99183142  0.73662464  0.84868016    -0.34000
N248        N  0.01149814  0.73640885  0.84878076    -0.28300
C249        C  0.01786426  0.73392729  0.86078181    -0.04400
C250        C  0.00146229  0.73253385  0.86870979     0.07800
C251        C  0.98518637  0.73445139  0.86066897     0.01600
H252        H  0.03331761  0.73225209  0.86346108     0.09300
H253        H  0.96963469  0.73358736  0.86326338     0.08400
N254        N  0.04319972  0.73814890  0.81505861    -0.35500
N255        N  0.03391614  0.73672568  0.80402401    -0.27700
C256        C  0.04750361  0.73736409  0.79462481    -0.02900
C257        C  0.06622053  0.73931417  0.80001816     0.05700
C258        C  0.06288022  0.73974483  0.81298317     0.03800
H259        H  0.04400511  0.73662400  0.78460937     0.08900
H260        H  0.07398237  0.74097434  0.82038375     0.07800
N261        N  0.27280022  0.72424933  0.74465820    -0.36000
N262        N  0.27762874  0.76497543  0.75435773    -0.56500
N263        N  0.23635240  0.76438180  0.76288188    -0.35900
N264        N  0.23249259  0.72266532  0.75466888    -0.56500
C265        C  0.29250862  0.72686651  0.74263050     0.27600
C266        C  0.26877217  0.70465549  0.74281894     0.27600
C267        C  0.24215829  0.78219656  0.76774494     0.27600
C268        C  0.21835235  0.75990823  0.76792706     0.27600
C269        C  0.29520168  0.76316839  0.74819927     0.36200
C270        C  0.27604519  0.78432935  0.75789342     0.36300
C271        C  0.23274959  0.70470491  0.74879074     0.36200
C272        C  0.21352019  0.72583414  0.75841854     0.36300
C273        C  0.30104966  0.70876161  0.73928944    -0.21200
C274        C  0.28609610  0.69477247  0.73940770    -0.21200
C275        C  0.22748456  0.78928026  0.77583332    -0.21200
C276        C  0.21248874  0.77526713  0.77593652    -0.21200
C277        C  0.30503441  0.78136516  0.74808345    -0.22300
C278        C  0.29292505  0.79474744  0.75422624    -0.22300
C279        C  0.21395552  0.69621256  0.74906482    -0.22300
C280        C  0.20179260  0.70954983  0.75518488    -0.22300
C281        C  0.30290869  0.74525759  0.74300667    -0.17600
C282        C  0.24977784  0.69552495  0.74346823    -0.17600
C283        C  0.20660795  0.74282821  0.76510931    -0.17600
C284        C  0.25987799  0.79273108  0.76468466    -0.17600
H285        H  0.31645611  0.70591864  0.73689830     0.15300
H286        H  0.28779111  0.67910808  0.73713616     0.15300
H287        H  0.22749969  0.80318164  0.78107169     0.15300
H288        H  0.19876278  0.77635713  0.78126903     0.15300
H289        H  0.31945578  0.78466725  0.74401024     0.13600
H290        H  0.29618579  0.81037791  0.75579532     0.13600
H291        H  0.20947351  0.68187442  0.74528347     0.13600
H292        H  0.18608573  0.70745534  0.75703944     0.13600
H293        H  0.26244582  0.73549464  0.74576054     0.26800
H294        H  0.24321347  0.75677442  0.75557341     0.26800
N295        N  0.97222771  0.25554071  0.80608851    -0.26600
N296        N  0.96265310  0.25438054  0.81704546    -0.34500
C297        C  0.94300186  0.25287614  0.81479720     0.01700
C298        C  0.93992584  0.25302358  0.80180572     0.07700
C299        C  0.95880184  0.25479828  0.79657261    -0.05400
H300        H  0.93176930  0.25141555  0.82209972     0.08400
H301        H  0.96253300  0.25490093  0.78658027     0.09600
Cu302      Cu  0.97651770  0.25335603  0.83467456     0.44200
Cu303      Cu  0.00331406  0.25623591  0.80468897     0.42000
Cu304      Cu  0.02830413  0.24072370  0.83370748     0.43900
N305        N  0.99389186  0.25064996  0.85090781    -0.34000
N306        N  0.01297957  0.24589910  0.85055406    -0.28300
C307        C  0.02048393  0.24690466  0.86239533    -0.04400
C308        C  0.00531601  0.25228475  0.87059740     0.07800
C309        C  0.98868237  0.25458073  0.86299692     0.01600
H310        H  0.03598687  0.24470716  0.86478483     0.09300
H311        H  0.97412842  0.25968315  0.86595160     0.08400
N312        N  0.04245695  0.24357513  0.81624334    -0.35500
N313        N  0.03402699  0.25146481  0.80609515    -0.27700
C314        C  0.04820753  0.25477287  0.79728652    -0.02900
C315        C  0.06652160  0.24818792  0.80193299     0.05700
C316        C  0.06194103  0.24086998  0.81395434     0.03800
H317        H  0.04534553  0.26201561  0.78830709     0.08900
H318        H  0.07201732  0.23429527  0.82075714     0.07800
N319        N  0.27093882  0.26545386  0.73906134    -0.36000
N320        N  0.27505247  0.22563368  0.74948229    -0.56500
N321        N  0.23482595  0.22864434  0.75986679    -0.35900
N322        N  0.23131083  0.26908446  0.75052854    -0.56500
C323        C  0.29052806  0.26220104  0.73678260     0.27600
C324        C  0.26750212  0.28519532  0.73741888     0.27600
C325        C  0.24145026  0.21196066  0.76573446     0.27600
C326        C  0.21842663  0.23487565  0.76620889     0.27600
C327        C  0.29178376  0.22602986  0.74234423     0.36200
C328        C  0.27256796  0.20653290  0.75329596     0.36300
C329        C  0.23146764  0.28582183  0.74335780     0.36200
C330        C  0.21217989  0.26600908  0.75406009     0.36300
C331        C  0.29957456  0.28006629  0.73347219    -0.21200
C332        C  0.28507055  0.29455259  0.73386631    -0.21200
C333        C  0.22911250  0.20749144  0.77590120    -0.21200
C334        C  0.21467949  0.22203368  0.77626270    -0.21200
C335        C  0.30013360  0.20714270  0.74177978    -0.22300
C336        C  0.28793192  0.19477319  0.74869945    -0.22300
C337        C  0.21240835  0.29360002  0.74248550    -0.22300
C338        C  0.20015244  0.28091498  0.74912473    -0.22300
C339        C  0.30028661  0.24342718  0.73698358    -0.17600
C340        C  0.24870309  0.29475583  0.73811610    -0.17600
C341        C  0.20577798  0.25076067  0.76245962    -0.17600
C342        C  0.25743639  0.19984967  0.76160891    -0.17600
H343        H  0.31499982  0.28241228  0.73090886     0.15300
H344        H  0.28719665  0.31017219  0.73161576     0.15300
H345        H  0.23024621  0.19491337  0.78231020     0.15300
H346        H  0.20251801  0.22278712  0.78298438     0.15300
H347        H  0.31369947  0.20277570  0.73698726     0.13600
H348        H  0.29027674  0.17899667  0.75032720     0.13600
H349        H  0.20780065  0.30700665  0.73756636     0.13600
H350        H  0.18426269  0.28268304  0.75035517     0.13600
H351        H  0.26011411  0.25458198  0.74026994     0.26800
H352        H  0.23962247  0.23383969  0.75109212     0.26800
N353        N  0.26903570  0.96672046  0.80268051    -0.26600
N354        N  0.27151054  0.95693329  0.81347440    -0.34500
C355        C  0.27084233  0.93720998  0.81116235     0.01700
C356        C  0.26791002  0.93434467  0.79829619     0.07700
C357        C  0.26688001  0.95338345  0.79317734    -0.05400
H358        H  0.27231425  0.92575252  0.81834005     0.08400
H359        H  0.26438691  0.95723965  0.78333068     0.09600
Cu360      Cu  0.27536438  0.97057242  0.83101468     0.44200
Cu361      Cu  0.26798682  0.99781822  0.80171294     0.42000
Cu362      Cu  0.27364510  0.02425408  0.83190612     0.43900
N363        N  0.27794334  0.98701623  0.84764672    -0.34000
N364        N  0.27702631  0.00672611  0.84799474    -0.28300
C365        C  0.27895426  0.01285812  0.86010000    -0.04400
C366        C  0.28123396  0.99619660  0.86768877     0.07800
C367        C  0.28062887  0.98007164  0.85951403     0.01600
H368        H  0.27905784  0.02829192  0.86312070     0.09300
H369        H  0.28216437  0.96447868  0.86199357     0.08400
N370        N  0.26935579  0.03829989  0.81456415    -0.35500
N371        N  0.26713462  0.02880833  0.80363711    -0.27700
C372        C  0.26433938  0.04236326  0.79436833    -0.02900
C373        C  0.26485463  0.06127305  0.79970231     0.05700
C374        C  0.26809892  0.05807680  0.81252072     0.03800
H375        H  0.26199494  0.03871268  0.78447481     0.08900
H376        H  0.26956136  0.06932195  0.81983589     0.07800
N377        N  0.23614922  0.52780839  0.69675941    -0.26600
N378        N  0.23318027  0.53797963  0.68614162    -0.34500
C379        C  0.23429878  0.55763748  0.68875606     0.01700
C380        C  0.23809223  0.55988069  0.70158684     0.07700
C381        C  0.23913670  0.54071848  0.70637561    -0.05400
H382        H  0.23255571  0.56942786  0.68182735     0.08400
H383        H  0.24205535  0.53646255  0.71610718     0.09600
Cu384      Cu  0.22838047  0.52482158  0.66840115     0.44200
Cu385      Cu  0.23687769  0.49680589  0.69784432     0.42000
Cu386      Cu  0.23594595  0.47145652  0.66774762     0.43900
N387        N  0.22658279  0.50771580  0.65184052    -0.34000
N388        N  0.23007804  0.48828921  0.65166507    -0.28300
C389        C  0.22840428  0.48152327  0.63968959    -0.04400
C390        C  0.22349931  0.49738411  0.63191814     0.07800
C391        C  0.22238249  0.51377832  0.63992771     0.01600
H392        H  0.23028644  0.46610919  0.63687546     0.09300
H393        H  0.21888865  0.52897659  0.63727201     0.08400
N394        N  0.23887715  0.45677154  0.68497348    -0.35500
N395        N  0.23873112  0.46593322  0.69609127    -0.27700
C396        C  0.24013491  0.45216173  0.70537264    -0.02900
C397        C  0.24133076  0.43348149  0.69978340     0.05700
C398        C  0.24049479  0.43699024  0.68685642     0.03800
H399        H  0.24036353  0.45549027  0.71542315     0.08900
H400        H  0.24075532  0.42593519  0.67936974     0.07800
N401        N  0.53526892  0.23106364  0.69797606    -0.26600
N402        N  0.54473164  0.23032629  0.68696331    -0.34500
C403        C  0.56443978  0.22993399  0.68901347     0.01700
C404        C  0.56777848  0.23052685  0.70193026     0.07700
C405        C  0.54895375  0.23114693  0.70737448    -0.05400
H406        H  0.57557797  0.22974120  0.68159453     0.08400
H407        H  0.54551183  0.23222136  0.71738525     0.09600
Cu408      Cu  0.53135791  0.23127873  0.66933373     0.44200
Cu409      Cu  0.50410843  0.23292265  0.69937274     0.42000
Cu410      Cu  0.47916532  0.23826338  0.66853032     0.43900
N411        N  0.51574146  0.23334826  0.65251786    -0.34000
N412        N  0.49632891  0.23628805  0.65217014    -0.28300
C413        C  0.49013268  0.23506152  0.64005210    -0.04400
C414        C  0.50645094  0.23093863  0.63241456     0.07800
C415        C  0.52244995  0.23009105  0.64066969     0.01600
H416        H  0.47471296  0.23571781  0.63712609     0.09300
H417        H  0.53757297  0.22590972  0.63835861     0.08400
N418        N  0.46439716  0.23716960  0.68586129    -0.35500
N419        N  0.47308841  0.23498520  0.69706331    -0.27700
C420        C  0.45883760  0.23465545  0.70611609    -0.02900
C421        C  0.44041519  0.23683891  0.70030144     0.05700
C422        C  0.44458693  0.23836223  0.68749088     0.03800
H423        H  0.46167058  0.23326709  0.71618868     0.08900
H424        H  0.43394402  0.24024871  0.67987650     0.07800
N425        N  0.47136266  0.75059292  0.69768829    -0.26600
N426        N  0.46152095  0.75196433  0.68682557    -0.34500
C427        C  0.44185519  0.75185014  0.68924719     0.01700
C428        C  0.43918361  0.75050164  0.70222138     0.07700
C429        C  0.45814729  0.74971661  0.70730140    -0.05400
H430        H  0.43034123  0.75260572  0.68208323     0.08400
H431        H  0.46204168  0.74830127  0.71722688     0.09600
Cu432      Cu  0.47484967  0.75409991  0.66903911     0.44200
Cu433      Cu  0.50235357  0.74951610  0.69902328     0.42000
Cu434      Cu  0.52812946  0.75366015  0.66886838     0.43900
N435        N  0.49159118  0.75696667  0.65251792    -0.34000
N436        N  0.51126062  0.75652649  0.65248907    -0.28300
C437        C  0.51785227  0.75936623  0.64056035    -0.04400
C438        C  0.50154631  0.76176169  0.63271322     0.07800
C439        C  0.48512621  0.76026310  0.64059405     0.01600
H440        H  0.53336265  0.76036587  0.63787657     0.09300
H441        H  0.46967817  0.76195823  0.63791238     0.08400
N442        N  0.54249867  0.75126374  0.68621950    -0.35500
N443        N  0.53331139  0.74945556  0.69726876    -0.27700
C444        C  0.54711753  0.74814472  0.70652914    -0.02900
C445        C  0.56582600  0.74933917  0.70100578     0.05700
C446        C  0.56226924  0.75129640  0.68814025     0.03800
H447        H  0.54380128  0.74672488  0.71654076     0.08900
H448        H  0.57328333  0.75260594  0.68069234     0.07800
N449        N  0.76500446  0.52163816  0.69780814    -0.26600
N450        N  0.76565492  0.53078399  0.68668115    -0.34500
C451        C  0.76571132  0.55063008  0.68851042     0.01700
C452        C  0.76504592  0.55436355  0.70140692     0.07700
C453        C  0.76469443  0.53562017  0.70705163    -0.05400
H454        H  0.76590826  0.56159189  0.68096665     0.08400
H455        H  0.76368165  0.53241930  0.71709865     0.09600
Cu456      Cu  0.76591430  0.51636707  0.66928769     0.44200
Cu457      Cu  0.76343795  0.49043637  0.69949475     0.42000
Cu458      Cu  0.76122667  0.46333750  0.66907244     0.43900
N459        N  0.76787116  0.49954129  0.65284602    -0.34000
N460        N  0.76634114  0.47989109  0.65268755    -0.28300
C461        C  0.77011063  0.47330978  0.64084053    -0.04400
C462        C  0.77422089  0.48965397  0.63317057     0.07800
C463        C  0.77249942  0.50602123  0.64113622     0.01600
H464        H  0.77067916  0.45774052  0.63814067     0.09300
H465        H  0.77502934  0.52150125  0.63869561     0.08400
N466        N  0.75984485  0.44977399  0.68682033    -0.35500
N467        N  0.76103428  0.45927347  0.69783202    -0.27700
C468        C  0.76106079  0.44562216  0.70726790    -0.02900
C469        C  0.75977558  0.42677396  0.70190153     0.05700
C470        C  0.75906609  0.42999296  0.68896552     0.03800
H471        H  0.76241828  0.44911523  0.71725828     0.08900
H472        H  0.75863435  0.41872250  0.68161372     0.07800
N473        N  0.32195525  0.99180504  0.02030360    -0.26600
N474        N  0.33901750  0.99327714  0.02650975    -0.34500
C475        C  0.33527576  0.99536364  0.03896267     0.01700
C476        C  0.31492450  0.99510775  0.04072422     0.07700
C477        C  0.30686909  0.99272565  0.02872318    -0.05400
H478        H  0.34656104  0.99699106  0.04621817     0.08400
H479        H  0.29124525  0.99213179  0.02627183     0.09600
Cu480      Cu  0.36687103  0.99295374  0.01808317     0.44200
Cu481      Cu  0.32016127  0.99022592  0.00059798     0.42000
Cu482      Cu  0.36830815  0.99311284  0.98432075     0.43900
N483        N  0.39322429  0.99347172  0.00789518    -0.34000
N484        N  0.39381550  0.99364246  0.99536178    -0.28300
C485        C  0.41293532  0.99391285  0.99155564    -0.04400
C486        C  0.42493935  0.99385032  0.00224378     0.07800
C487        C  0.41192354  0.99357841  0.01242984     0.01600
H488        H  0.41774024  0.99375948  0.98175143     0.09300
H489        H  0.41576795  0.99334295  0.02240433     0.08400
N490        N  0.34095505  0.99328745  0.97523418    -0.35500
N491        N  0.32346363  0.99212235  0.98097863    -0.27700
C492        C  0.30897762  0.99278713  0.97212877    -0.02900
C493        C  0.31789564  0.99452997  0.96034914     0.05700
C494        C  0.33808641  0.99471460  0.96265182     0.03800
H495        H  0.29320335  0.99195822  0.97411498     0.08900
H496        H  0.34986266  0.99566816  0.95567173     0.07800
N497        N  0.01027465  0.31245885  0.98114222    -0.26600
N498        N  0.01005913  0.32940838  0.97471315    -0.34500
C499        C  0.00971867  0.32547973  0.96223286     0.01700
C500        C  0.00931519  0.30502871  0.96052714     0.07700
C501        C  0.00981115  0.29719639  0.97276619    -0.05400
H502        H  0.00940364  0.33680229  0.95491165     0.08400
H503        H  0.00933104  0.28159556  0.97539316     0.09600
Cu504      Cu  0.00836552  0.35747830  0.98265046     0.44200
Cu505      Cu  0.01063543  0.31153826  0.00106576     0.42000
Cu506      Cu  0.00884809  0.36090415  0.01620272     0.43900
N507        N  0.00558885  0.38426508  0.99209191    -0.34000
N508        N  0.00617130  0.38559140  0.00459193    -0.28300
C509        C  0.00479651  0.40487585  0.00796486    -0.04400
C510        C  0.00314746  0.41615821  0.99702168     0.07800
C511        C  0.00367062  0.40264233  0.98712363     0.01600
H512        H  0.00521756  0.41030319  0.01763697     0.09300
H513        H  0.00327467  0.40595053  0.97707229     0.08400
N514        N  0.00958824  0.33422839  0.02603171    -0.35500
N515        N  0.01032489  0.31630986  0.02076785    -0.27700
C516        C  0.01000190  0.30251016  0.03009184    -0.02900
C517        C  0.00889357  0.31224065  0.04173372     0.05700
C518        C  0.00863998  0.33231770  0.03870966     0.03800
H519        H  0.01034726  0.28656199  0.02850692     0.08900
H520        H  0.00732418  0.34470873  0.04524327     0.07800
N521        N  0.96984494  0.73184758  0.19538130    -0.26600
N522        N  0.96052009  0.73058893  0.18433569    -0.34500
C523        C  0.94074222  0.73074324  0.18629825     0.01700
C524        C  0.93725593  0.73209121  0.19919733     0.07700
C525        C  0.95605169  0.73270823  0.20468873    -0.05400
H526        H  0.92968218  0.72957993  0.17886801     0.08400
H527        H  0.95941752  0.73373481  0.21471231     0.09600
Cu528      Cu  0.97453533  0.72760732  0.16692172     0.44200
Cu529      Cu  0.00106157  0.73232674  0.19711718     0.42000
Cu530      Cu  0.02762807  0.72749194  0.16695569     0.43900
N531        N  0.99120962  0.72244465  0.15071726    -0.34000
N532        N  0.01086566  0.72225948  0.15070089    -0.28300
C533        C  0.01729500  0.71791077  0.13891382    -0.04400
C534        C  0.00085451  0.71523799  0.13113320     0.07800
C535        C  0.98457754  0.71824409  0.13896719     0.01600
H536        H  0.03277998  0.71652146  0.13624400     0.09300
H537        H  0.96903934  0.71739633  0.13632717     0.08400
N538        N  0.04159269  0.73193270  0.18434632    -0.35500
N539        N  0.03227359  0.73321887  0.19539834    -0.27700
C540        C  0.04604489  0.73534272  0.20465712    -0.02900
C541        C  0.06479301  0.73558118  0.19910561     0.05700
C542        C  0.06133755  0.73340242  0.18625425     0.03800
H543        H  0.04268891  0.73671238  0.21466505     0.08900
H544        H  0.07242800  0.73266630  0.17882213     0.07800
N545        N  0.23340631  0.76478404  0.23916809    -0.36000
N546        N  0.22753570  0.72600163  0.25131106    -0.56500
N547        N  0.26816813  0.72785941  0.26114806    -0.35900
N548        N  0.27316792  0.76754237  0.25030848    -0.56500
C549        C  0.21381658  0.76195679  0.23670803     0.27600
C550        C  0.23774960  0.78406408  0.23645382     0.27600
C551        C  0.26131411  0.71153532  0.26734759     0.27600
C552        C  0.28532468  0.73351579  0.26686940     0.27600
C553        C  0.21067435  0.72665530  0.24428402     0.36200
C554        C  0.22914428  0.70710912  0.25574744     0.36300
C555        C  0.27346260  0.78446550  0.24332719     0.36200
C556        C  0.29190188  0.76479207  0.25463958     0.36300
C557        C  0.20573545  0.77953971  0.23205322    -0.21200
C558        C  0.22078500  0.79346965  0.23192180    -0.21200
C559        C  0.27436545  0.70667017  0.27707022    -0.21200
C560        C  0.28951296  0.72051532  0.27675985    -0.21200
C561        C  0.20131969  0.70821876  0.24449532    -0.22300
C562        C  0.21306686  0.69581828  0.25166879    -0.22300
C563        C  0.29241688  0.79265263  0.24336721    -0.22300
C564        C  0.30412137  0.78013815  0.25047482    -0.22300
C565        C  0.20315856  0.74377057  0.23799504    -0.17600
C566        C  0.25668159  0.79334028  0.23751628    -0.17600
C567        C  0.29789231  0.74940457  0.26300041    -0.17600
C568        C  0.24435333  0.70009225  0.26394716    -0.17600
H569        H  0.19055827  0.78209633  0.22902313     0.15300
H570        H  0.21937953  0.80877877  0.22876297     0.15300
H571        H  0.27321373  0.69427618  0.28362321     0.15300
H572        H  0.30226044  0.72086019  0.28304072     0.15300
H573        H  0.18749579  0.70409115  0.23991628     0.13600
H574        H  0.21001142  0.68028606  0.25371751     0.13600
H575        H  0.29728408  0.80629740  0.23881921     0.13600
H576        H  0.31976210  0.78229476  0.25252250     0.13600
H577        H  0.24357081  0.75375950  0.24144432     0.26800
H578        H  0.26279353  0.73326867  0.25258894     0.26800
N579        N  0.73183122  0.71943959  0.25903175    -0.36000
N580        N  0.77403923  0.71736567  0.25195552    -0.56500
N581        N  0.77272059  0.75930871  0.24428449    -0.35900
N582        N  0.73059071  0.76137629  0.25152295    -0.56500
C583        C  0.73628117  0.70109413  0.26367848     0.27600
C584        C  0.71308450  0.72399493  0.26285617     0.27600
C585        C  0.79046849  0.75394230  0.23916060     0.27600
C586        C  0.76779674  0.77731573  0.23930544     0.27600
C587        C  0.77210230  0.69872405  0.25674502     0.36200
C588        C  0.79300546  0.71910068  0.24777300     0.36300
C589        C  0.71162601  0.75972885  0.25569307     0.36200
C590        C  0.73307113  0.78054608  0.24785227     0.36300
C591        C  0.71992180  0.69372774  0.27022862    -0.21200
C592        C  0.70533455  0.70808185  0.26967060    -0.21200
C593        C  0.79711034  0.76901873  0.23118075    -0.21200
C594        C  0.78288129  0.78369767  0.23127729    -0.21200
C595        C  0.78999500  0.68857141  0.25559874    -0.22300
C596        C  0.80321201  0.70146493  0.24996465    -0.22300
C597        C  0.70205592  0.77799669  0.25470303    -0.22300
C598        C  0.71566518  0.79119354  0.24986946    -0.22300
C599        C  0.75462619  0.69066601  0.26235297    -0.17600
C600        C  0.70280507  0.74225536  0.26078355    -0.17600
C601        C  0.75006385  0.78827503  0.24159621    -0.17600
C602        C  0.80102790  0.73587594  0.24133206    -0.17600
H603        H  0.71866321  0.67954737  0.27508783     0.15300
H604        H  0.69080159  0.70705998  0.27405794     0.15300
H605        H  0.81069300  0.76932201  0.22565857     0.15300
H606        H  0.78346506  0.79739199  0.22583642     0.15300
H607        H  0.79322734  0.67342516  0.25851345     0.13600
H608        H  0.81853130  0.69812510  0.24760935     0.13600
H609        H  0.68685751  0.78152977  0.25725349     0.13600
H610        H  0.71287549  0.80676208  0.24778397     0.13600
H611        H  0.74065448  0.72788113  0.25304366     0.26800
H612        H  0.76508698  0.75183654  0.25140120     0.26800
N613        N  0.74231105  0.95671160  0.19569528    -0.26600
N614        N  0.74024722  0.94691643  0.18486760    -0.34500
C615        C  0.74066928  0.92721601  0.18708821     0.01700
C616        C  0.74310096  0.92429883  0.19993630     0.07700
C617        C  0.74401442  0.94328177  0.20517080    -0.05400
H618        H  0.73921938  0.91583708  0.17985524     0.08400
H619        H  0.74593104  0.94702058  0.21508843     0.09600
Cu620      Cu  0.73702425  0.95991296  0.16734328     0.44200
Cu621      Cu  0.74295421  0.98791308  0.19678218     0.42000
Cu622      Cu  0.74077756  0.01255937  0.16580733     0.43900
N623        N  0.73487518  0.97540453  0.15059636    -0.34000
N624        N  0.73642580  0.99501309  0.14995733    -0.28300
C625        C  0.73400188  0.00079566  0.13784508    -0.04400
C626        C  0.73080481  0.98391773  0.13056007     0.07800
C627        C  0.73144196  0.96808345  0.13894287     0.01600
H628        H  0.73429900  0.01612433  0.13461892     0.09300
H629        H  0.72916994  0.95245681  0.13678499     0.08400
N630        N  0.74286688  0.02751011  0.18288713    -0.35500
N631        N  0.74331891  0.01890669  0.19419533    -0.27700
C632        C  0.74387046  0.03330853  0.20313901    -0.02900
C633        C  0.74386253  0.05172533  0.19710707     0.05700
C634        C  0.74320957  0.04742157  0.18430437     0.03800
H635        H  0.74425128  0.03060084  0.21326248     0.08900
H636        H  0.74267505  0.05801785  0.17655913     0.07800
N637        N  0.72928240  0.21524499  0.24898565    -0.36000
N638        N  0.73318192  0.25420745  0.26126645    -0.56500
N639        N  0.77347614  0.25775967  0.25113681    -0.35900
N640        N  0.77043563  0.21785270  0.24023370    -0.56500
C641        C  0.71237125  0.21546944  0.25597345     0.27600
C642        C  0.73206714  0.19628788  0.24489392     0.27600
C643        C  0.77292896  0.27401687  0.25877159     0.27600
C644        C  0.79272731  0.25466323  0.24784973     0.27600
C645        C  0.71357229  0.25095765  0.26336392     0.36200
C646        C  0.73674391  0.27350028  0.26435263     0.36300
C647        C  0.76495490  0.20090531  0.23417939     0.36200
C648        C  0.78825313  0.22326779  0.23532959     0.36300
C649        C  0.70413318  0.19648042  0.25614725    -0.21200
C650        C  0.71657110  0.18438016  0.24918510    -0.21200
C651        C  0.79205013  0.28148030  0.26023719    -0.21200
C652        C  0.80453319  0.26925101  0.25338317    -0.21200
C653        C  0.70475096  0.26814069  0.26805843    -0.22300
C654        C  0.71940091  0.28241130  0.26866006    -0.22300
C655        C  0.77947182  0.19541188  0.22550551    -0.22300
C656        C  0.79420354  0.20956129  0.22622775    -0.22300
C657        C  0.70360845  0.23249063  0.26168624    -0.17600
C658        C  0.74762087  0.18961001  0.23685302    -0.17600
C659        C  0.79981467  0.23977105  0.23940193    -0.17600
C660        C  0.75555925  0.28304820  0.26383343    -0.17600
H661        H  0.69050536  0.19182445  0.26076215     0.15300
H662        H  0.71435221  0.16862380  0.24739963     0.15300
H663        H  0.79653835  0.29449578  0.26561456     0.15300
H664        H  0.82047516  0.27105755  0.25245100     0.15300
H665        H  0.68935966  0.27018353  0.27079808     0.13600
H666        H  0.71750658  0.29759140  0.27196055     0.13600
H667        H  0.77952521  0.18246807  0.21935466     0.13600
H668        H  0.80781855  0.20964888  0.22073459     0.13600
H669        H  0.73722767  0.22767354  0.24604364     0.26800
H670        H  0.76122231  0.25067553  0.24721176     0.26800
N671        N  0.26126916  0.96517115  0.19709331    -0.26600
N672        N  0.26249789  0.95543659  0.18618582    -0.34500
C673        C  0.26116789  0.93573111  0.18842589     0.01700
C674        C  0.25900561  0.93292033  0.20132854     0.07700
C675        C  0.25925503  0.95183393  0.20658273    -0.05400
H676        H  0.26229662  0.92426546  0.18122869     0.08400
H677        H  0.25844107  0.95559537  0.21655802     0.09600
Cu678      Cu  0.26691682  0.96892299  0.16869394     0.44200
Cu679      Cu  0.26256729  0.99613321  0.19853716     0.42000
Cu680      Cu  0.26500823  0.02238925  0.16835525     0.43900
N681        N  0.27047093  0.98568252  0.15230781    -0.34000
N682        N  0.26910535  0.00536241  0.15214627    -0.28300
C683        C  0.27161240  0.01187256  0.14017510    -0.04400
C684        C  0.27487201  0.99549647  0.13247721     0.07800
C685        C  0.27411287  0.97912548  0.14045480     0.01600
H686        H  0.27139265  0.02738191  0.13731779     0.09300
H687        H  0.27595569  0.96362379  0.13783213     0.08400
N688        N  0.26333899  0.03652024  0.18582287    -0.35500
N689        N  0.26254036  0.02709087  0.19685330    -0.27700
C690        C  0.26168186  0.04070792  0.20624974    -0.02900
C691        C  0.26206379  0.05949632  0.20081893     0.05700
C692        C  0.26313172  0.05631675  0.18789458     0.03800
H693        H  0.26092197  0.03720313  0.21626481     0.08900
H694        H  0.26369840  0.06756401  0.18053236     0.07800
N695        N  0.97064049  0.24434863  0.19601815    -0.26600
N696        N  0.96144307  0.24486302  0.18491661    -0.34500
C697        C  0.94164752  0.24479371  0.18682081     0.01700
C698        C  0.93796263  0.24400857  0.19975287     0.07700
C699        C  0.95676885  0.24379127  0.20528696    -0.05400
H700        H  0.93070548  0.24539980  0.17929571     0.08400
H701        H  0.96011482  0.24308650  0.21532359     0.09600
Cu702      Cu  0.97582856  0.24577568  0.16748278     0.44200
Cu703      Cu  0.00181004  0.24469736  0.19783701     0.42000
Cu704      Cu  0.02896991  0.25038089  0.16790226     0.43900
N705        N  0.99267282  0.24972723  0.15116397    -0.34000
N706        N  0.01218773  0.25209542  0.15131702    -0.28300
C707        C  0.01838116  0.25677366  0.13952475    -0.04400
C708        C  0.00196884  0.25734952  0.13152116     0.07800
C709        C  0.98596151  0.25258314  0.13927109     0.01600
H710        H  0.03358506  0.26046914  0.13709003     0.09300
H711        H  0.97043211  0.25202841  0.13658943     0.08400
N712        N  0.04263227  0.24840345  0.18561272    -0.35500
N713        N  0.03301627  0.24611277  0.19649363    -0.27700
C714        C  0.04648984  0.24541778  0.20600255    -0.02900
C715        C  0.06541053  0.24751445  0.20085946     0.05700
C716        C  0.06231770  0.24935066  0.18792324     0.03800
H717        H  0.04279573  0.24384519  0.21595029     0.08900
H718        H  0.07359921  0.25127399  0.18069530     0.07800
N719        N  0.23284175  0.22555645  0.24274731    -0.36000
N720        N  0.27318038  0.22213775  0.25305739    -0.56500
N721        N  0.27111195  0.26328754  0.26129260    -0.35900
N722        N  0.22983208  0.26590030  0.25210361    -0.56500
C723        C  0.23619655  0.20575854  0.24147643     0.27600
C724        C  0.21296218  0.22850615  0.24161057     0.27600
C725        C  0.28788078  0.25745427  0.26743114     0.27600
C726        C  0.26551628  0.28104854  0.26623641     0.27600
C727        C  0.27267658  0.20539291  0.24591561     0.36200
C728        C  0.29231145  0.22462643  0.25673808     0.36300
C729        C  0.21252288  0.26507990  0.24553531     0.36200
C730        C  0.23320609  0.28536257  0.25469641     0.36300
C731        C  0.21826284  0.19598766  0.23946609    -0.21200
C732        C  0.20360197  0.21033412  0.23957762    -0.21200
C733        C  0.29314663  0.27186758  0.27626061    -0.21200
C734        C  0.27908349  0.28677594  0.27548113    -0.21200
C735        C  0.29157781  0.19716859  0.24510298    -0.22300
C736        C  0.30397092  0.20924137  0.25208163    -0.22300
C737        C  0.20472242  0.28407105  0.24409953    -0.22300
C738        C  0.21782253  0.29692702  0.24989641    -0.22300
C739        C  0.25514178  0.19650631  0.24104910    -0.17600
C740        C  0.20326630  0.24729532  0.24130939    -0.17600
C741        C  0.24912803  0.29274587  0.26216137    -0.17600
C742        C  0.29921291  0.24009737  0.26473830    -0.17600
H743        H  0.21601288  0.18018420  0.23787513     0.15300
H744        H  0.18787722  0.20772860  0.23807394     0.15300
H745        H  0.30594354  0.27179018  0.28250309     0.15300
H746        H  0.27894194  0.30035985  0.28104492     0.15300
H747        H  0.29592234  0.18364185  0.24021992     0.13600
H748        H  0.31975362  0.20697529  0.25354387     0.13600
H749        H  0.19098515  0.28821668  0.23942944     0.13600
H750        H  0.21609564  0.31294861  0.25062291     0.13600
H751        H  0.24375669  0.23652823  0.24267391     0.26800
H752        H  0.26499834  0.25672762  0.25327000     0.26800
N753        N  0.53236165  0.22327199  0.30361151    -0.26600
N754        N  0.54283255  0.22278196  0.31425669    -0.34500
C755        C  0.56231693  0.22375763  0.31142990     0.01700
C756        C  0.56434014  0.22477637  0.29840082     0.07700
C757        C  0.54506723  0.22439094  0.29369769    -0.05400
H758        H  0.57418663  0.22378059  0.31837131     0.08400
H759        H  0.54062036  0.22525281  0.28384124     0.09600
Cu760      Cu  0.53070478  0.22088578  0.33236112     0.44200
Cu761      Cu  0.50117481  0.22343550  0.30332875     0.42000
Cu762      Cu  0.47762862  0.22319521  0.33475458     0.43900
N763        N  0.51579923  0.21891228  0.34959637    -0.34000
N764        N  0.49620949  0.21989017  0.35053107    -0.28300
C765        C  0.49107942  0.21812090  0.36285005    -0.04400
C766        C  0.50826643  0.21588994  0.37002787     0.07800
C767        C  0.52364743  0.21645427  0.36126256     0.01600
H768        H  0.47593026  0.21819316  0.36632941     0.09300
H769        H  0.53940465  0.21523686  0.36322380     0.08400
N770        N  0.46200929  0.22549921  0.31764902    -0.35500
N771        N  0.47036635  0.22518196  0.30626144    -0.27700
C772        C  0.45593771  0.22649930  0.29738166    -0.02900
C773        C  0.43765344  0.22782598  0.30345509     0.05700
C774        C  0.44214733  0.22716047  0.31628492     0.03800
H775        H  0.45856084  0.22665427  0.28724708     0.08900
H776        H  0.43167188  0.22762756  0.32408039     0.07800
N777        N  0.23916689  0.46530128  0.30161895    -0.26600
N778        N  0.24061146  0.45533263  0.31241974    -0.34500
C779        C  0.24266551  0.43580108  0.30990287     0.01700
C780        C  0.24246864  0.43321326  0.29689692     0.07700
C781        C  0.24016301  0.45222478  0.29190205    -0.05400
H782        H  0.24389126  0.42425671  0.31704403     0.08400
H783        H  0.23936689  0.45624650  0.28196682     0.09600
Cu784      Cu  0.23857317  0.46805134  0.33026016     0.44200
Cu785      Cu  0.23607963  0.49626741  0.30088290     0.42000
Cu786      Cu  0.22721262  0.52014665  0.33164574     0.43900
N787        N  0.23249053  0.48271688  0.34708894    -0.34000
N788        N  0.22785581  0.50185812  0.34761537    -0.28300
C789        C  0.22348248  0.50664185  0.35970580    -0.04400
C790        C  0.22540208  0.48965334  0.36713689     0.07800
C791        C  0.23118071  0.47478737  0.35879472     0.01600
H792        H  0.21887791  0.52131534  0.36282534     0.09300
H793        H  0.23350248  0.45918267  0.36097961     0.08400
N794        N  0.23029308  0.53558309  0.31460352    -0.35500
N795        N  0.23385042  0.52706612  0.30349719    -0.27700
C796        C  0.23622966  0.54143980  0.29467440    -0.02900
C797        C  0.23401955  0.55990104  0.30047777     0.05700
C798        C  0.23020550  0.55552382  0.31310490     0.03800
H799        H  0.23972096  0.53865411  0.28480536     0.08900
H800        H  0.22773822  0.56609852  0.32070627     0.07800
N801        N  0.76517785  0.51851320  0.30376869    -0.26600
N802        N  0.76364545  0.52777702  0.31483397    -0.34500
C803        C  0.76142537  0.54748096  0.31279804     0.01700
C804        C  0.76172126  0.55093922  0.29985751     0.07700
C805        C  0.76420254  0.53224804  0.29440587    -0.05400
H806        H  0.75999837  0.55855722  0.32021776     0.08400
H807        H  0.76503249  0.52888030  0.28437430     0.09600
Cu808      Cu  0.76569216  0.51377213  0.33242033     0.44200
Cu809      Cu  0.76772692  0.48739740  0.30198936     0.42000
Cu810      Cu  0.77181446  0.46049777  0.33181793     0.43900
N811        N  0.77113244  0.49690617  0.34863362    -0.34000
N812        N  0.77341192  0.47732068  0.34834792    -0.28300
C813        C  0.77811648  0.47085790  0.36005566    -0.04400
C814        C  0.77903712  0.48716092  0.36813421     0.07800
C815        C  0.77441815  0.50343504  0.36055085     0.01600
H816        H  0.78125863  0.45546761  0.36242795     0.09300
H817        H  0.77435761  0.51896804  0.36335959     0.08400
N818        N  0.76980271  0.44652483  0.31425733    -0.35500
N819        N  0.76820010  0.45612570  0.30331799    -0.27700
C820        C  0.76648818  0.44255620  0.29389697    -0.02900
C821        C  0.76714120  0.42362733  0.29920696     0.05700
C822        C  0.76927279  0.42673196  0.31209828     0.03800
H823        H  0.76474458  0.44617706  0.28395018     0.08900
H824        H  0.77010029  0.41541345  0.31940569     0.07800
N825        N  0.46951317  0.75644688  0.30356408    -0.26600
N826        N  0.46083129  0.75613298  0.31483786    -0.34500
C827        C  0.44098909  0.75526397  0.31327216     0.01700
C828        C  0.43689450  0.75505047  0.30040246     0.07700
C829        C  0.45533534  0.75586517  0.29452228    -0.05400
H830        H  0.43030459  0.75491263  0.32095475     0.08400
H831        H  0.45823356  0.75575931  0.28441789     0.09600
Cu832      Cu  0.47601234  0.75716410  0.33197957     0.44200
Cu833      Cu  0.50030993  0.75700889  0.30105829     0.42000
Cu834      Cu  0.52932054  0.75686570  0.33043534     0.43900
N835        N  0.49392921  0.75958307  0.34794894    -0.34000
N836        N  0.51357838  0.75944512  0.34745497    -0.28300
C837        C  0.52078672  0.76185689  0.35929730    -0.04400
C838        C  0.50489740  0.76365511  0.36766262     0.07800
C839        C  0.48811493  0.76214153  0.36006834     0.01600
H840        H  0.53645280  0.76243776  0.36163798     0.09300
H841        H  0.47276974  0.76331360  0.36308550     0.08400
N842        N  0.54170610  0.75523200  0.31227439    -0.35500
N843        N  0.53132644  0.75575427  0.30159187    -0.27700
C844        C  0.54398117  0.75462290  0.29166911    -0.02900
C845        C  0.56319181  0.75317619  0.29634720     0.05700
C846        C  0.56115494  0.75358250  0.30941823     0.03800
H847        H  0.53951181  0.75449053  0.28180107     0.08900
H848        H  0.57299794  0.75274257  0.31635675     0.07800
C849        C  0.39090447  0.21572809  0.28410846    -0.04800
C850        C  0.37819491  0.23163485  0.28749579     0.09300
C851        C  0.38502830  0.24625333  0.29610523    -0.02200
C852        C  0.40458985  0.24531105  0.30101942    -0.00500
C853        C  0.41739962  0.22941533  0.29762931    -0.04100
C854        C  0.41046082  0.21468341  0.28906626     0.02900
C855        C  0.35787216  0.23350345  0.28160484     0.09800
C856        C  0.37174251  0.26214149  0.30003878     0.35700
C857        C  0.42327294  0.19818634  0.28553279     0.39100
C858        C  0.34114652  0.22439298  0.28730313    -0.04400
C859        C  0.32204355  0.22652410  0.28181194     0.02700
C860        C  0.31948111  0.23794055  0.27063902    -0.04000
C861        C  0.33623178  0.24697538  0.26492700    -0.00300
C862        C  0.35533903  0.24469711  0.27035265    -0.02800
C863        C  0.34365207  0.21284447  0.29883143     0.36400
C864        C  0.33377243  0.25846164  0.25337062     0.40000
C865        C  0.30496301  0.21699428  0.28764910     0.39200
C866        C  0.37250183  0.25378228  0.26432972     0.36100
C867        C  0.38363504  0.20019949  0.27571208     0.36800
C868        C  0.41181666  0.26124469  0.30912586     0.40000
N869        N  0.29130795  0.20936774  0.29227226    -0.38000
N870        N  0.34569730  0.20363336  0.30803465    -0.39600
N871        N  0.33174584  0.26761465  0.24414361    -0.37400
N872        N  0.38625720  0.26095873  0.25954127    -0.39800
N873        N  0.36103344  0.27468633  0.30324792    -0.39500
N874        N  0.41764225  0.27405425  0.31549671    -0.37200
N875        N  0.43351514  0.18505186  0.28267315    -0.38200
N876        N  0.37772514  0.18773718  0.26909989    -0.39900
C877        C  0.23488940  0.33924601  0.28091595    -0.04800
C878        C  0.24570071  0.35418485  0.27443924     0.09300
C879        C  0.25776840  0.34895458  0.26398571    -0.02200
C880        C  0.25918384  0.32884936  0.26011631    -0.00500
C881        C  0.24809829  0.31397536  0.26646084    -0.04100
C882        C  0.23589578  0.31923482  0.27684077     0.02900
C883        C  0.24550237  0.37518488  0.27926849     0.09800
C884        C  0.26891412  0.36427954  0.25734641     0.35700
C885        C  0.22467937  0.30392494  0.28345220     0.39100
C886        C  0.26117920  0.38193450  0.28706310    -0.04400
C887        C  0.26050621  0.40117963  0.29243641     0.02700
C888        C  0.24409398  0.41385097  0.29007235    -0.04000
C889        C  0.22870759  0.40732957  0.28189690    -0.00300
C890        C  0.22941762  0.38802073  0.27652073    -0.02800
C891        C  0.27785817  0.36883622  0.28972484     0.36400
C892        C  0.21168543  0.42007778  0.27948269     0.40000
C893        C  0.27686444  0.40798187  0.30032035     0.39200
C894        C  0.21344578  0.38117571  0.26834099     0.36100
C895        C  0.22321791  0.34441785  0.29202083     0.36800
C896        C  0.27225274  0.32337324  0.24973012     0.40000
N897        N  0.28994174  0.41336677  0.30660010    -0.38000
N898        N  0.29112226  0.35830610  0.29176706    -0.39600
N899        N  0.19808962  0.43023902  0.27756658    -0.37400
N900        N  0.20068786  0.37569936  0.26182867    -0.39800
N901        N  0.27780687  0.37655128  0.25208576    -0.39500
N902        N  0.28280889  0.31894832  0.24151805    -0.37200
N903        N  0.21574409  0.29164764  0.28867774    -0.38200
N904        N  0.21401114  0.34855707  0.30092464    -0.39900
C905        C  0.14638096  0.25153579  0.23863198    -0.04800
C906        C  0.14346040  0.24889135  0.22544008     0.09300
C907        C  0.16019734  0.24614360  0.21750290    -0.02200
C908        C  0.17960206  0.24603181  0.22266900    -0.00500
C909        C  0.18254315  0.24832282  0.23587767    -0.04100
C910        C  0.16582144  0.25118929  0.24383400     0.02900
C911        C  0.12282602  0.24899177  0.21979613     0.09800
C912        C  0.15739896  0.24324195  0.20397471     0.35700
C913        C  0.16863960  0.25365833  0.25739154     0.39100
C914        C  0.11617259  0.26556975  0.21267135    -0.04400
C915        C  0.09744698  0.26510731  0.20654180     0.02700
C916        C  0.08494675  0.24818985  0.20766006    -0.04000
C917        C  0.09148848  0.23170764  0.21493488    -0.00300
C918        C  0.11033469  0.23209949  0.22094804    -0.02800
C919        C  0.12873569  0.28310030  0.21157923     0.36400
C920        C  0.07931681  0.21385973  0.21564154     0.40000
C921        C  0.09103723  0.28214066  0.19909188     0.39200
C922        C  0.11715751  0.21486976  0.22804789     0.36100
C923        C  0.12934001  0.25463935  0.24684030     0.36800
C924        C  0.19665963  0.24374137  0.21435909     0.40000
N925        N  0.08596224  0.29568321  0.19309018    -0.38000
N926        N  0.13880691  0.29705058  0.21069264    -0.39600
N927        N  0.06966128  0.19956758  0.21612059    -0.37400
N928        N  0.12263683  0.20115274  0.23373449    -0.39800
N929        N  0.15510213  0.24097147  0.19318145    -0.39500
N930        N  0.21031934  0.24194163  0.20776732    -0.37200
N931        N  0.17091955  0.25570744  0.26820573    -0.38200
N932        N  0.11571338  0.25706370  0.25338105    -0.39900
C933        C  0.24257216  0.10577599  0.21753393    -0.04800
C934        C  0.26005538  0.11734082  0.21856342     0.09300
C935        C  0.27829911  0.10967291  0.21407922    -0.02200
C936        C  0.27900302  0.09060092  0.20842445    -0.00500
C937        C  0.26149432  0.07906772  0.20733851    -0.04100
C938        C  0.24330693  0.08661979  0.21200284     0.02900
C939        C  0.25916779  0.13770520  0.22432546     0.09800
C940        C  0.29629479  0.12149297  0.21524732     0.35700
C941        C  0.22527729  0.07484459  0.21086108     0.39100
C942        C  0.26140547  0.14011391  0.23755345    -0.04400
C943        C  0.26007191  0.15926260  0.24303991     0.02700
C944        C  0.25656483  0.17612881  0.23529783    -0.04000
C945        C  0.25439810  0.17368353  0.22203757    -0.00300
C946        C  0.25570829  0.15451964  0.21657430    -0.02800
C947        C  0.26501977  0.12281452  0.24549621     0.36400
C948        C  0.25088687  0.19093479  0.21401787     0.40000
C949        C  0.26223731  0.16163945  0.25665839     0.39200
C950        C  0.25345916  0.15202965  0.20296948     0.36100
C951        C  0.22379767  0.11378285  0.22202334     0.36800
C952        C  0.29776224  0.08274738  0.20379850     0.40000
N953        N  0.26409769  0.16361805  0.26750968    -0.38000
N954        N  0.26790158  0.10897453  0.25180578    -0.39600
N955        N  0.24800090  0.20471589  0.20765491    -0.37400
N956        N  0.25168220  0.15000795  0.19211568    -0.39800
N957        N  0.31063948  0.13094710  0.21619419    -0.39500
N958        N  0.31271107  0.07643085  0.20011186    -0.37200
N959        N  0.21089160  0.06544448  0.20995152    -0.38200
N960        N  0.20885636  0.12028148  0.22559076    -0.39900
C961        C  0.85503402  0.22888385  0.23386297    -0.04800
C962        C  0.85963075  0.24237302  0.22398624     0.09300
C963        C  0.84480140  0.25554674  0.21951284    -0.02200
C964        C  0.82541305  0.25496336  0.22469479    -0.00500
C965        C  0.82076881  0.24138681  0.23452522    -0.04100
C966        C  0.83576948  0.22860050  0.23924314     0.02900
C967        C  0.87996277  0.24240893  0.21803776     0.09800
C968        C  0.84945325  0.26944174  0.20938305     0.35700
C969        C  0.83129031  0.21511370  0.24962660     0.39100
C970        C  0.88415039  0.22963180  0.20774235    -0.04400
C971        C  0.90304830  0.23002698  0.20184406     0.02700
C972        C  0.91803374  0.24332526  0.20617008    -0.04000
C973        C  0.91372549  0.25612201  0.21652971    -0.00300
C974        C  0.89486125  0.25549604  0.22249133    -0.02800
C975        C  0.86891765  0.21598149  0.20325973     0.36400
C976        C  0.92830141  0.27067109  0.22071705     0.40000
C977        C  0.90706987  0.21635328  0.19147986     0.39200
C978        C  0.89068175  0.26837068  0.23323375     0.36100
C979        C  0.87004074  0.21498140  0.23827060     0.36800
C980        C  0.81007338  0.26802720  0.21973245     0.40000
N981        N  0.91017342  0.20546502  0.18318140    -0.38000
N982        N  0.85673733  0.20508658  0.19973778    -0.39600
N983        N  0.93985874  0.28237268  0.22404357    -0.37400
N984        N  0.88731265  0.27856163  0.24184042    -0.39800
N985        N  0.85321988  0.28051138  0.20129625    -0.39500
N986        N  0.79778910  0.27842759  0.21579847    -0.37200
N987        N  0.82765389  0.20442005  0.25793961    -0.38200
N988        N  0.88199031  0.20378681  0.24170896    -0.39900
C989        C  0.76089695  0.32785006  0.28617469    -0.04800
C990        C  0.76059540  0.34394935  0.27750603     0.09300
C991        C  0.75854270  0.34002982  0.26439995    -0.02200
C992        C  0.75667142  0.32019178  0.26000674    -0.00500
C993        C  0.75718680  0.30408016  0.26865431    -0.04100
C994        C  0.75928932  0.30798470  0.28176487     0.02900
C995        C  0.76231302  0.36503967  0.28225333     0.09800
C996        C  0.75847960  0.35644279  0.25543529     0.35700
C997        C  0.75984757  0.29152701  0.29069293     0.39100
C998        C  0.78120300  0.37346365  0.28469117    -0.04400
C999        C  0.78277931  0.39286481  0.28987553     0.02700
C1000       C  0.76548064  0.40396681  0.29270281    -0.04000
C1001       C  0.74659508  0.39572417  0.28999832    -0.00300
C1002       C  0.74502603  0.37638225  0.28471336    -0.02800
C1003       C  0.79900787  0.36203858  0.28194852     0.36400
C1004       C  0.72875357  0.40694456  0.29298287     0.40000
C1005       C  0.80221959  0.40140649  0.29238322     0.39200
C1006       C  0.72561442  0.36797955  0.28193951     0.36100
C1007       C  0.76282863  0.33180865  0.29965386     0.36800
C1008       C  0.75394610  0.31627411  0.24657618     0.40000
N1009       N  0.81771282  0.40828517  0.29437068    -0.38000
N1010       N  0.81319013  0.35287702  0.27975113    -0.39600
N1011       N  0.71451274  0.41587248  0.29540648    -0.37400
N1012       N  0.71016150  0.36123319  0.27966148    -0.39800
N1013       N  0.75848172  0.36953638  0.24826944    -0.39500
N1014       N  0.75168752  0.31301284  0.23588225    -0.37200
N1015       N  0.76027989  0.27838369  0.29781743    -0.38200
N1016       N  0.76436824  0.33506076  0.31040090    -0.39900
C1017       C  0.65924957  0.22610369  0.28401323    -0.04800
C1018       C  0.64304624  0.22875368  0.27562588     0.09300
C1019       C  0.64674016  0.23235169  0.26262215    -0.02200
C1020       C  0.66648357  0.23341085  0.25806175    -0.00500
C1021       C  0.68265856  0.23075954  0.26645609    -0.04100
C1022       C  0.67896924  0.22693454  0.27942368     0.02900
C1023       C  0.62210860  0.22822415  0.28060078     0.09800
C1024       C  0.63019470  0.23537368  0.25399919     0.35700
C1025       C  0.69553517  0.22385833  0.28802505     0.39100
C1026       C  0.61436070  0.24480619  0.28723017    -0.04400
C1027       C  0.59510264  0.24397033  0.29255856     0.02700
C1028       C  0.58341955  0.22653956  0.29131644    -0.04000
C1029       C  0.59084396  0.21023769  0.28425685    -0.00300
C1030       C  0.61019956  0.21101306  0.27900640    -0.02800
C1031       C  0.62644538  0.26258673  0.28879512     0.36400
C1032       C  0.57883558  0.19239866  0.28277460     0.40000
C1033       C  0.58720917  0.26114786  0.29925290     0.39200
C1034       C  0.61818682  0.19383982  0.27235822     0.36100
C1035       C  0.65558875  0.22284186  0.29742386     0.36800
C1036       C  0.67023430  0.23758684  0.24476578     0.40000
N1037       N  0.58086134  0.27487985  0.30454293    -0.38000
N1038       N  0.63620037  0.27668269  0.29009212    -0.39600
N1039       N  0.56923141  0.17817741  0.28157170    -0.37400
N1040       N  0.62463093  0.18013766  0.26708331    -0.39800
N1041       N  0.61696773  0.23777473  0.24713071    -0.39500
N1042       N  0.67329526  0.24095947  0.23416717    -0.37200
N1043       N  0.70879285  0.22136808  0.29485576    -0.38200
N1044       N  0.65261963  0.22043541  0.30813873    -0.39900
C1045       C  0.72864460  0.09728166  0.21651366    -0.04800
C1046       C  0.74369427  0.11103799  0.21322098     0.09300
C1047       C  0.75870173  0.10536710  0.20457434    -0.02200
C1048       C  0.75894359  0.08588412  0.19948336    -0.00500
C1049       C  0.74401972  0.07197782  0.20290058    -0.04100
C1050       C  0.72880300  0.07780668  0.21139234     0.02900
C1051       C  0.74431620  0.13119228  0.21937264     0.09800
C1052       C  0.77387839  0.11965711  0.20090624     0.35700
C1053       C  0.71296251  0.06398083  0.21459371     0.39100
C1054       C  0.75674919  0.13439202  0.22998150    -0.04400
C1055       C  0.75740234  0.15327231  0.23588888     0.02700
C1056       C  0.74592715  0.16922345  0.23106796    -0.04000
C1057       C  0.73321514  0.16592463  0.22058374    -0.00300
C1058       C  0.73237700  0.14694320  0.21477189    -0.02800
C1059       C  0.76884404  0.11815433  0.23481304     0.36400
C1060       C  0.72100733  0.18210246  0.21580174     0.40000
C1061       C  0.76963649  0.15624542  0.24707173     0.39200
C1062       C  0.71926922  0.14357565  0.20404665     0.36100
C1063       C  0.71293157  0.10328359  0.22514289     0.36800
C1064       C  0.77496130  0.07996381  0.19104547     0.40000
N1065       N  0.77931064  0.15860040  0.25603832    -0.38000
N1066       N  0.77849382  0.10514394  0.23858986    -0.39600
N1067       N  0.71119981  0.19502298  0.21206471    -0.37400
N1068       N  0.70875111  0.14084355  0.19551950    -0.39800
N1069       N  0.78594990  0.13107810  0.19795137    -0.39500
N1070       N  0.78775977  0.07519743  0.18434663    -0.37200
N1071       N  0.70030494  0.05296346  0.21714315    -0.38200
N1072       N  0.70036854  0.10819536  0.23197577    -0.39900
C1073       C  0.75748846  0.84403781  0.23553900    -0.04800
C1074       C  0.74618338  0.84675784  0.22438552     0.09300
C1075       C  0.73593353  0.83047132  0.21898759    -0.02200
C1076       C  0.73701810  0.81148757  0.22469507    -0.00500
C1077       C  0.74843458  0.80866545  0.23583086    -0.04100
C1078       C  0.75856755  0.82504564  0.24128247     0.02900
C1079       C  0.74539483  0.86676609  0.21815497     0.09800
C1080       C  0.72448363  0.83325623  0.20745028     0.35700
C1081       C  0.77007085  0.82233666  0.25279952     0.39100
C1082       C  0.75946216  0.87176327  0.20874516    -0.04400
C1083       C  0.75895365  0.89072269  0.20296019     0.02700
C1084       C  0.74421063  0.90473056  0.20648069    -0.04000
C1085       C  0.72983923  0.89951111  0.21568934    -0.00300
C1086       C  0.73049058  0.88059080  0.22154857    -0.02800
C1087       C  0.77423910  0.85719542  0.20488213     0.36400
C1088       C  0.71376197  0.91318586  0.21863705     0.40000
C1089       C  0.77375237  0.89584943  0.19346730     0.39200
C1090       C  0.71555454  0.87510218  0.23085532     0.36100
C1091       C  0.76818028  0.86079929  0.24097616     0.36800
C1092       C  0.72636100  0.79480757  0.21912685     0.40000
N1093       N  0.78553837  0.89990966  0.18587895    -0.38000
N1094       N  0.78591042  0.84548253  0.20176643    -0.39600
N1095       N  0.70086287  0.92406477  0.22088574    -0.37400
N1096       N  0.70359626  0.87066257  0.23824309    -0.39800
N1097       N  0.71540988  0.83550205  0.19822192    -0.39500
N1098       N  0.71772529  0.78149729  0.21479635    -0.37200
N1099       N  0.77927460  0.82021592  0.26198811    -0.38200
N1100       N  0.77671074  0.87423365  0.24523823    -0.39900
C1101       C  0.65736635  0.75429528  0.28121324    -0.04800
C1102       C  0.64158522  0.74814246  0.27326772     0.09300
C1103       C  0.64586528  0.74002677  0.26120163    -0.02200
C1104       C  0.66581968  0.73784126  0.25717803    -0.00500
C1105       C  0.68160669  0.74379403  0.26519592    -0.04100
C1106       C  0.67728790  0.75202448  0.27722751     0.02900
C1107       C  0.62057400  0.74884786  0.27808113     0.09800
C1108       C  0.62968346  0.73384504  0.25298694     0.35700
C1109       C  0.69344381  0.75804391  0.28551638     0.39100
C1110       C  0.60845010  0.76573288  0.27594906    -0.04400
C1111       C  0.58919189  0.76675538  0.28135278     0.02700
C1112       C  0.58215254  0.75107121  0.28913776    -0.04000
C1113       C  0.59393794  0.73379380  0.29071965    -0.00300
C1114       C  0.61306226  0.73271068  0.28523308    -0.02800
C1115       C  0.61603246  0.78225079  0.26848355     0.36400
C1116       C  0.58619210  0.71690801  0.29778188     0.40000
C1117       C  0.57685031  0.78417317  0.27918941     0.39200
C1118       C  0.62525712  0.71510029  0.28711232     0.36100
C1119       C  0.65304367  0.76290915  0.29353664     0.36800
C1120       C  0.67016062  0.72937876  0.24481793     0.40000
N1121       N  0.56693008  0.79800971  0.27741113    -0.38000
N1122       N  0.62209716  0.79546641  0.26255426    -0.39600
N1123       N  0.57994808  0.70337588  0.30333258    -0.37400
N1124       N  0.63509119  0.70111528  0.28857470    -0.39800
N1125       N  0.61671700  0.72896695  0.24645099    -0.39500
N1126       N  0.67363416  0.72256884  0.23496617    -0.37200
N1127       N  0.70641317  0.76279391  0.29208608    -0.38200
N1128       N  0.64955739  0.76982523  0.30335545    -0.39900
C1129       C  0.74889504  0.63401468  0.26538597    -0.04800
C1130       C  0.75684253  0.63049789  0.27759386     0.09300
C1131       C  0.76411363  0.64672316  0.28479701    -0.02200
C1132       C  0.76385130  0.66624624  0.27972018    -0.00500
C1133       C  0.75567636  0.66980485  0.26756741    -0.04100
C1134       C  0.74812037  0.65361296  0.26044844     0.02900
C1135       C  0.75775571  0.60965701  0.28284335     0.09800
C1136       C  0.77160182  0.64330548  0.29752237     0.35700
C1137       C  0.73954509  0.65719503  0.24802450     0.39100
C1138       C  0.77510150  0.59803124  0.28126614    -0.04400
C1139       C  0.77612155  0.57852834  0.28636470     0.02700
C1140       C  0.76000519  0.57071387  0.29342545    -0.04000
C1141       C  0.74257259  0.58231451  0.29489047    -0.00300
C1142       C  0.74139103  0.60161304  0.28951241    -0.02800
C1143       C  0.79205250  0.60636856  0.27458994     0.36400
C1144       C  0.72567366  0.57423929  0.30175319     0.40000
C1145       C  0.79400443  0.56673655  0.28464222     0.39200
C1146       C  0.72336856  0.61330814  0.29088930     0.36100
C1147       C  0.74151351  0.61740910  0.25792130     0.36800
C1148       C  0.77211583  0.68270105  0.28694731     0.40000
N1149       N  0.80825487  0.55730612  0.28321865    -0.38000
N1150       N  0.80558118  0.61314309  0.26932469    -0.39600
N1151       N  0.71219089  0.56776852  0.30721832    -0.37400
N1152       N  0.70898177  0.62265086  0.29193668    -0.39800
N1153       N  0.77742604  0.64054847  0.30771277    -0.39500
N1154       N  0.77887697  0.69582830  0.29264424    -0.37200
N1155       N  0.73264451  0.66014642  0.23813446    -0.38200
N1156       N  0.73565199  0.60412534  0.25197288    -0.39900
C1157       C  0.25636556  0.85023228  0.23665142    -0.04800
C1158       C  0.26075149  0.85398522  0.22377298     0.09300
C1159       C  0.26471391  0.83788364  0.21550162    -0.02200
C1160       C  0.26383024  0.81808251  0.22003010    -0.00500
C1161       C  0.25874880  0.81430656  0.23280882    -0.04100
C1162       C  0.25528386  0.83043939  0.24114771     0.02900
C1163       C  0.26021245  0.87485604  0.21874381     0.09800
C1164       C  0.26935144  0.84175107  0.20227958     0.35700
C1165       C  0.25030836  0.82658427  0.25431911     0.39100
C1166       C  0.27791974  0.88602978  0.21752492    -0.04400
C1167       C  0.27737451  0.90537559  0.21225120     0.02700
C1168       C  0.25916896  0.91351393  0.20804152    -0.04000
C1169       C  0.24139189  0.90254853  0.20954509    -0.00300
C1170       C  0.24190450  0.88329130  0.21494962    -0.02800
C1171       C  0.29670665  0.87749577  0.22155209     0.36400
C1172       C  0.22260314  0.91103270  0.20546023     0.40000
C1173       C  0.29557590  0.91685628  0.21096556     0.39200
C1174       C  0.22365024  0.87197088  0.21648858     0.36100
C1175       C  0.25275634  0.86678452  0.24521507     0.36800
C1176       C  0.26808749  0.80156141  0.21156836     0.40000
N1177       N  0.31001960  0.92613628  0.20993771    -0.38000
N1178       N  0.31172530  0.87069208  0.22473437    -0.39600
N1179       N  0.20757799  0.91776769  0.20222801    -0.37400
N1180       N  0.20915711  0.86285430  0.21779023    -0.39800
N1181       N  0.27303118  0.84492097  0.19173561    -0.39500
N1182       N  0.27156369  0.78836981  0.20483216    -0.37200
N1183       N  0.24632201  0.82342881  0.26481843    -0.38200
N1184       N  0.24989715  0.88002901  0.25202687    -0.39900
C1185       C  0.35346000  0.73959860  0.26722026    -0.04800
C1186       C  0.35796601  0.75186814  0.27772715     0.09300
C1187       C  0.34281193  0.76343071  0.28337577    -0.02200
C1188       C  0.32325675  0.76279733  0.27851681    -0.00500
C1189       C  0.31862442  0.75015691  0.26819843    -0.04100
C1190       C  0.33378682  0.73855184  0.26256978     0.02900
C1191       C  0.37857466  0.75225548  0.28312844     0.09800
C1192       C  0.34739347  0.77583198  0.29427875     0.35700
C1193       C  0.32909637  0.72564234  0.25192830     0.39100
C1194       C  0.39214319  0.76727110  0.27947616    -0.04400
C1195       C  0.41108250  0.76840173  0.28524827     0.02700
C1196       C  0.41692226  0.75393567  0.29429564    -0.04000
C1197       C  0.40343814  0.73859687  0.29768729    -0.00300
C1198       C  0.38421976  0.73801775  0.29230313    -0.02800
C1199       C  0.38649017  0.78164525  0.26983563     0.36400
C1200       C  0.40942904  0.72309599  0.30650808     0.40000
C1201       C  0.42406113  0.78512380  0.28240815     0.39200
C1202       C  0.37004082  0.72296635  0.29634851     0.36100
C1203       C  0.36913570  0.72819726  0.26115439     0.36800
C1204       C  0.30789886  0.77523060  0.28406676     0.40000
N1205       N  0.43430958  0.79859857  0.28025905    -0.38000
N1206       N  0.38198701  0.79302919  0.26208861    -0.39600
N1207       N  0.41420480  0.71067136  0.31350598    -0.37400
N1208       N  0.35862232  0.71108310  0.29960479    -0.39800
N1209       N  0.35115419  0.78563481  0.30300311    -0.39500
N1210       N  0.29567467  0.78527069  0.28843085    -0.37200
N1211       N  0.32525677  0.71532063  0.24346346    -0.38200
N1212       N  0.38167858  0.71918690  0.25627667    -0.39900
C1213       C  0.25291761  0.64425957  0.26917344    -0.04800
C1214       C  0.23873628  0.63985349  0.27865324     0.09300
C1215       C  0.22620092  0.65514644  0.28323579    -0.02200
C1216       C  0.22823033  0.67485515  0.27863943    -0.00500
C1217       C  0.24254001  0.67932586  0.26921288    -0.04100
C1218       C  0.25487382  0.66391666  0.26450569     0.02900
C1219       C  0.23754965  0.61922287  0.28415327     0.09800
C1220       C  0.21099969  0.65046216  0.29254286     0.35700
C1221       C  0.26958946  0.66832066  0.25482542     0.39100
C1222       C  0.24794885  0.61466386  0.29541754    -0.04400
C1223       C  0.24741465  0.59514704  0.30046766     0.02700
C1224       C  0.23572284  0.58015196  0.29459576    -0.04000
C1225       C  0.22533169  0.58478804  0.28326857    -0.00300
C1226       C  0.22642717  0.60418250  0.27802085    -0.02800
C1227       C  0.25920111  0.63016984  0.30182642     0.36400
C1228       C  0.21299439  0.56983418  0.27716384     0.40000
C1229       C  0.25972441  0.59034452  0.31136393     0.39200
C1230       C  0.21596273  0.60877625  0.26634037     0.36100
C1231       C  0.26533873  0.62844260  0.26412958     0.36800
C1232       C  0.21571771  0.69060335  0.28367327     0.40000
N1233       N  0.26969918  0.58651400  0.31998463    -0.38000
N1234       N  0.26803027  0.64261760  0.30696236    -0.39600
N1235       N  0.20315536  0.55790638  0.27227908    -0.37400
N1236       N  0.20767270  0.61244574  0.25699743    -0.39800
N1237       N  0.19878265  0.64664169  0.29989877    -0.39500
N1238       N  0.20573505  0.70319600  0.28766586    -0.37200
N1239       N  0.28139592  0.67191120  0.24715639    -0.38200
N1240       N  0.27510798  0.61574636  0.26005640    -0.39900
C1241       C  0.16101475  0.73552770  0.21415438    -0.04800
C1242       C  0.14413111  0.74087688  0.22138707     0.09300
C1243       C  0.14664158  0.74726082  0.23406915    -0.02200
C1244       C  0.16583698  0.74804127  0.23953114    -0.00500
C1245       C  0.18270139  0.74261908  0.23231030    -0.04100
C1246       C  0.18021493  0.73634732  0.21960933     0.02900
C1247       C  0.12362717  0.73960218  0.21572454     0.09800
C1248       C  0.12941588  0.75324234  0.24142982     0.41700
C1249       C  0.19749018  0.73058171  0.21222085     0.39100
C1250       C  0.11176293  0.72248077  0.21773701    -0.04400
C1251       C  0.09225927  0.72145974  0.21272159     0.02700
C1252       C  0.08464468  0.73734550  0.20535549    -0.04000
C1253       C  0.09659841  0.75441565  0.20326897    -0.00300
C1254       C  0.11593618  0.75559941  0.20851710    -0.02800
C1255       C  0.11987477  0.70572363  0.22474269     0.36400
C1256       C  0.08886534  0.77092455  0.19586060     0.40000
C1257       C  0.08021752  0.70381296  0.21486144     0.39200
C1258       C  0.12800958  0.77326225  0.20648882     0.36100
C1259       C  0.15860714  0.72925638  0.20107368     0.36800
C1260       C  0.16829383  0.75445675  0.25258380     0.40000
N1261       N  0.07059247  0.68974186  0.21659121    -0.38000
N1262       N  0.12647490  0.69234281  0.23026594    -0.39600
N1263       N  0.08266944  0.78409856  0.18995782    -0.37400
N1264       N  0.13769489  0.78732883  0.20488497    -0.39800
N1265       N  0.11561839  0.75806354  0.24724381    -0.39500
N1266       N  0.17027030  0.75955818  0.26300607    -0.37200
N1267       N  0.21135204  0.72594263  0.20640853    -0.38200
N1268       N  0.15671518  0.72432546  0.19061236    -0.39900
C1269       C  0.88434972  0.74702030  0.20856600    -0.04800
C1270       C  0.87972261  0.73250691  0.21781835     0.09300
C1271       C  0.89385980  0.71766133  0.22081201    -0.02200
C1272       C  0.91260711  0.71746938  0.21471033    -0.00500
C1273       C  0.91746170  0.73227270  0.20564738    -0.04100
C1274       C  0.90309356  0.74689504  0.20247773     0.02900
C1275       C  0.85971524  0.73264794  0.22418490     0.09800
C1276       C  0.88893497  0.70238527  0.23004424     0.35700
C1277       C  0.90759996  0.76197387  0.19302063     0.39100
C1278       C  0.84347454  0.72257620  0.21858820    -0.04400
C1279       C  0.82447014  0.72327001  0.22430896     0.02700
C1280       C  0.82152680  0.73408299  0.23568591    -0.04000
C1281       C  0.83784620  0.74401819  0.24133875    -0.00300
C1282       C  0.85685322  0.74331523  0.23560168    -0.02800
C1283       C  0.84631551  0.71179016  0.20679169     0.36400
C1284       C  0.83497860  0.75514944  0.25300098     0.40000
C1285       C  0.80782270  0.71311733  0.21838358     0.39200
C1286       C  0.87345355  0.75384654  0.24130799     0.36100
C1287       C  0.86967945  0.76203086  0.20527689     0.36800
C1288       C  0.92646551  0.70136796  0.21723949     0.40000
N1289       N  0.79452945  0.70495777  0.21370110    -0.38000
N1290       N  0.84864797  0.70325603  0.19735582    -0.39600
N1291       N  0.83264238  0.76407132  0.26229071    -0.37400
N1292       N  0.88672779  0.76226966  0.24582187    -0.39800
N1293       N  0.88497017  0.69018331  0.23740043    -0.39500
N1294       N  0.93746756  0.68842532  0.21914157    -0.37200
N1295       N  0.91111811  0.77396231  0.18543181    -0.38200
N1296       N  0.85789907  0.77393979  0.20267155    -0.39900
C1297       C  0.01652257  0.30355074  0.07726971    -0.04800
C1298       C  0.00328164  0.28765480  0.07963110     0.09300
C1299       C  0.99183170  0.27977397  0.06959480    -0.02200
C1300       C  0.99352672  0.28781817  0.05723785    -0.00500
C1301       C  0.00724164  0.30340771  0.05472949    -0.04100
C1302       C  0.01886112  0.31109734  0.06485123     0.02900
C1303       C  0.00195293  0.27888716  0.09269273     0.09800
C1304       C  0.97825600  0.26338064  0.07203131     0.35700
C1305       C  0.03384370  0.32625586  0.06249320     0.39100
C1306       C  0.98760919  0.28588037  0.10137505    -0.04400
C1307       C  0.98736434  0.27867317  0.11397822     0.02700
C1308       C  0.00146461  0.26422398  0.11800037    -0.04000
C1309       C  0.01553423  0.25692233  0.10911799    -0.00300
C1310       C  0.01576403  0.26426811  0.09655000    -0.02800
C1311       C  0.97337372  0.30089629  0.09738407     0.36400
C1312       C  0.02965105  0.24159839  0.11277399     0.40000
C1313       C  0.97315303  0.28699191  0.12289202     0.39200
C1314       C  0.03036616  0.25695886  0.08753054     0.36100
C1315       C  0.02768321  0.31219641  0.08771100     0.36800
C1316       C  0.98053299  0.28051526  0.04727075     0.40000
N1317       N  0.96176907  0.29365365  0.12996598    -0.38000
N1318       N  0.96200669  0.31287208  0.09421624    -0.39600
N1319       N  0.04099349  0.22939693  0.11561550    -0.37400
N1320       N  0.04196709  0.25124115  0.08027145    -0.39800
N1321       N  0.96745812  0.25026911  0.07397802    -0.39500
N1322       N  0.97009751  0.27472136  0.03934022    -0.37200
N1323       N  0.04588853  0.33827884  0.06067294    -0.38200
N1324       N  0.03642818  0.31912745  0.09609043    -0.39900
C1325       C  0.30123591  0.99110691  0.10067342    -0.04800
C1326       C  0.28620179  0.99751361  0.09224532     0.09300
C1327       C  0.26727925  0.00269666  0.09699456    -0.02200
C1328       C  0.26345274  0.00162702  0.11015055    -0.00500
C1329       C  0.27862682  0.99564582  0.11861341    -0.04100
C1330       C  0.29747730  0.99019012  0.11382688     0.02900
C1331       C  0.29043159  0.99825271  0.07832330     0.09800
C1332       C  0.25177001  0.00903521  0.08832301     0.35700
C1333       C  0.31311782  0.98392323  0.12244053     0.39100
C1334       C  0.28668293  0.98135021  0.07070132    -0.04400
C1335       C  0.29382070  0.98063877  0.05811339     0.02700
C1336       C  0.30445980  0.99699204  0.05306016    -0.04000
C1337       C  0.30672015  0.01453875  0.06036109    -0.00300
C1338       C  0.29988065  0.01510078  0.07301188    -0.02800
C1339       C  0.27607840  0.96444046  0.07601099     0.36400
C1340       C  0.31607165  0.03201870  0.05482823     0.40000
C1341       C  0.29122516  0.96264813  0.05064122     0.39200
C1342       C  0.30306687  0.03276769  0.08070854     0.36100
C1343       C  0.32058473  0.98541189  0.09574491     0.36800
C1344       C  0.24368616  0.00592572  0.11495517     0.40000
N1345       N  0.28920410  0.94825758  0.04470047    -0.38000
N1346       N  0.26752794  0.95103537  0.08029093    -0.39600
N1347       N  0.32339663  0.04599690  0.05036571    -0.37400
N1348       N  0.30562876  0.04684928  0.08686160    -0.39800
N1349       N  0.23938243  0.01409571  0.08140427    -0.39500
N1350       N  0.22789092  0.00914466  0.11882460    -0.37200
N1351       N  0.32561678  0.97889150  0.12928764    -0.38200
N1352       N  0.33596929  0.98086812  0.09174320    -0.39900
C1353       C  0.27316736  0.99886623  0.90340010    -0.04800
C1354       C  0.29272872  0.99598921  0.90793365     0.09300
C1355       C  0.30843818  0.99302478  0.89922233    -0.02200
C1356       C  0.30457325  0.99267732  0.88607139    -0.00500
C1357       C  0.28507958  0.99585605  0.88153348    -0.04100
C1358       C  0.26937676  0.99895557  0.89021642     0.02900
C1359       C  0.29686919  0.99553921  0.92189539     0.09800
C1360       C  0.32862708  0.99045976  0.90382460     0.35700
C1361       C  0.24925305  0.00177264  0.88557799     0.39100
C1362       C  0.30063565  0.97714507  0.92798389    -0.04400
C1363       C  0.30649709  0.97676375  0.94082585     0.02700
C1364       C  0.30842065  0.99473724  0.94767750    -0.04000
C1365       C  0.30348467  0.01303185  0.94184605    -0.00300
C1366       C  0.29797339  0.01347441  0.92891698    -0.02800
C1367       C  0.29906895  0.95865522  0.92089059     0.36400
C1368       C  0.30441259  0.03140206  0.94910901     0.40000
C1369       C  0.31096865  0.95790248  0.94695321     0.39200
C1370       C  0.29426881  0.03241613  0.92268797     0.36100
C1371       C  0.25694634  0.00148449  0.91232731     0.36800
C1372       C  0.32068216  0.98912854  0.87718443     0.40000
N1373       N  0.31451798  0.94288510  0.95188397    -0.38000
N1374       N  0.29791233  0.94393787  0.91518608    -0.39600
N1375       N  0.30499767  0.04603847  0.95493495    -0.37400
N1376       N  0.29137400  0.04752311  0.91769140    -0.39800
N1377       N  0.34471297  0.98841887  0.90752764    -0.39500
N1378       N  0.33349398  0.98620376  0.87008179    -0.37200
N1379       N  0.23318680  0.00396031  0.88187341    -0.38200
N1380       N  0.24403652  0.00357977  0.91947701    -0.39900
C1381       C  0.27293604  0.10420992  0.77640819    -0.04800
C1382       C  0.25990842  0.11878118  0.78130970     0.09300
C1383       C  0.24780274  0.11419792  0.79185112    -0.02200
C1384       C  0.24917665  0.09533922  0.79775058    -0.00500
C1385       C  0.26271097  0.08086720  0.79312279    -0.04100
C1386       C  0.27445741  0.08536578  0.78232955     0.02900
C1387       C  0.25976108  0.13942791  0.77588953     0.09800
C1388       C  0.23394952  0.12901647  0.79662362     0.35700
C1389       C  0.28890009  0.07104783  0.77767369     0.39100
C1390       C  0.24798425  0.14399170  0.76518484    -0.04400
C1391       C  0.24748373  0.16366944  0.76041745     0.02700
C1392       C  0.25845803  0.17892320  0.76648031    -0.04000
C1393       C  0.27016732  0.17435825  0.77721081    -0.00300
C1394       C  0.27109258  0.15459461  0.78176127    -0.02800
C1395       C  0.23629856  0.12845289  0.75915990     0.36400
C1396       C  0.28083831  0.19012484  0.78374126     0.40000
C1397       C  0.23564173  0.16831841  0.74929231     0.39200
C1398       C  0.28378293  0.14975419  0.79246463     0.36100
C1399       C  0.28501518  0.10879230  0.76537192     0.36800
C1400       C  0.23637617  0.09080502  0.80846326     0.40000
N1401       N  0.22624613  0.17210991  0.74040561    -0.38000
N1402       N  0.22696835  0.11604569  0.75435525    -0.39600
N1403       N  0.28920566  0.20275234  0.78901056    -0.37400
N1404       N  0.29397078  0.14576025  0.80095008    -0.39800
N1405       N  0.22291250  0.14088793  0.80037396    -0.39500
N1406       N  0.22615675  0.08726618  0.81701980    -0.37200
N1407       N  0.30047780  0.05965998  0.77397935    -0.38200
N1408       N  0.29456625  0.11245302  0.75652869    -0.39900
C1409       C  0.24108033  0.33765749  0.71480020    -0.04800
C1410       C  0.24542383  0.35439168  0.72247847     0.09300
C1411       C  0.25022604  0.35158227  0.73541479    -0.02200
C1412       C  0.25079924  0.33216634  0.74060793    -0.00500
C1413       C  0.24700129  0.31542347  0.73283235    -0.04100
C1414       C  0.24197561  0.31823678  0.71994714     0.02900
C1415       C  0.24468592  0.37501661  0.71696125     0.09800
C1416       C  0.25470669  0.36871077  0.74333802     0.35700
C1417       C  0.23750633  0.30107816  0.71205113     0.39100
C1418       C  0.22832324  0.38760036  0.71951817    -0.04400
C1419       C  0.22759447  0.40702381  0.71433636     0.02700
C1420       C  0.24286028  0.41371186  0.70613724    -0.04000
C1421       C  0.25925733  0.40111536  0.70360406    -0.00300
C1422       C  0.26027820  0.38194142  0.70912277    -0.02800
C1423       C  0.21198715  0.38030117  0.72723609     0.36400
C1424       C  0.27534848  0.40807709  0.69555099     0.40000
C1425       C  0.21085121  0.41990782  0.71720200     0.39200
C1426       C  0.27741276  0.36931126  0.70677551     0.36100
C1427       C  0.23551333  0.34047657  0.70162033     0.36800
C1428       C  0.25522680  0.32936217  0.75396264     0.40000
N1429       N  0.19753664  0.43020769  0.71956573    -0.38000
N1430       N  0.19896225  0.37436276  0.73335640    -0.39600
N1431       N  0.28816958  0.41367386  0.68913074    -0.37400
N1432       N  0.29108299  0.35923065  0.70490939    -0.39800
N1433       N  0.25823852  0.38243011  0.74962564    -0.39500
N1434       N  0.25865132  0.32712245  0.76463648    -0.37200
N1435       N  0.23386863  0.28732859  0.70581654    -0.38200
N1436       N  0.23106832  0.34275598  0.69110461    -0.39900
C1437       C  0.34345396  0.23904119  0.71341383    -0.04800
C1438       C  0.36015447  0.24088546  0.72150656     0.09300
C1439       C  0.35712019  0.24321429  0.73471185    -0.02200
C1440       C  0.33764287  0.24351089  0.73976961    -0.00500
C1441       C  0.32097977  0.24215191  0.73164535    -0.04100
C1442       C  0.32396274  0.23983067  0.71845449     0.02900
C1443       C  0.38095573  0.23995333  0.71618923     0.09800
C1444       C  0.37409323  0.24546722  0.74309448     0.35700
C1445       C  0.30690494  0.23791333  0.71011118     0.39100
C1446       C  0.38888967  0.25622103  0.70930013    -0.04400
C1447       C  0.40850173  0.25538858  0.70447229     0.02700
C1448       C  0.42031773  0.23816127  0.70629401    -0.04000
C1449       C  0.41240603  0.22189858  0.71319960    -0.00300
C1450       C  0.39281944  0.22278758  0.71810259    -0.02800
C1451       C  0.37678573  0.27378590  0.70705780     0.36400
C1452       C  0.42412138  0.20392199  0.71486363     0.40000
C1453       C  0.41674195  0.27252761  0.69788584     0.39200
C1454       C  0.38461952  0.20581990  0.72487670     0.36100
C1455       C  0.34635541  0.23612459  0.69989837     0.36800
C1456       C  0.33468220  0.24501192  0.75337343     0.40000
N1457       N  0.42343123  0.28618495  0.69267822    -0.38000
N1458       N  0.36709017  0.28772946  0.70512604    -0.39600
N1459       N  0.43340998  0.18952959  0.71618085    -0.37400
N1460       N  0.37797960  0.19235292  0.73030454    -0.39800
N1461       N  0.38765865  0.24725078  0.74976970    -0.39500
N1462       N  0.33225009  0.24600737  0.76423276    -0.37200
N1463       N  0.29325446  0.23633533  0.70348555    -0.38200
N1464       N  0.34870388  0.23384343  0.68910987    -0.39900
C1465       C  0.01782955  0.28118477  0.90066445    -0.04800
C1466       C  0.00828884  0.26953859  0.91005231     0.09300
C1467       C  0.99865274  0.25164128  0.90652887    -0.02200
C1468       C  0.99821620  0.24565488  0.89366354    -0.00500
C1469       C  0.00708984  0.25771405  0.88422990    -0.04100
C1470       C  0.01704409  0.27541869  0.88779027     0.02900
C1471       C  0.00726439  0.27703886  0.92346232     0.09800
C1472       C  0.98881319  0.23965376  0.91611941     0.35700
C1473       C  0.02577140  0.28815745  0.87813914     0.39100
C1474       C  0.99395167  0.29256146  0.92652763    -0.04400
C1475       C  0.99408182  0.30112043  0.93875793     0.02700
C1476       C  0.00773672  0.29435994  0.94808534    -0.04000
C1477       C  0.02043678  0.27812824  0.94515514    -0.00300
C1478       C  0.02007717  0.26943355  0.93291144    -0.02800
C1479       C  0.98014070  0.29981439  0.91698628     0.36400
C1480       C  0.03460796  0.27094515  0.95447397     0.40000
C1481       C  0.97984124  0.31672521  0.94171012     0.39200
C1482       C  0.03311778  0.25284407  0.92994206     0.36100
C1483       C  0.02815959  0.29934670  0.90426590     0.36800
C1484       C  0.98878141  0.22699751  0.89012402     0.40000
N1485       N  0.96849755  0.32921338  0.94399401    -0.38000
N1486       N  0.96917339  0.30556833  0.90934782    -0.39600
N1487       N  0.04595179  0.26518074  0.96188397    -0.37400
N1488       N  0.04339299  0.23948973  0.92759223    -0.39800
N1489       N  0.98097553  0.23011290  0.92379690    -0.39500
N1490       N  0.98136923  0.21204683  0.88729631    -0.37200
N1491       N  0.03262581  0.29835754  0.87042130    -0.38200
N1492       N  0.03638055  0.31383118  0.90716502    -0.39900
C1493       C  0.12333597  0.25211775  0.79754333    -0.04800
C1494       C  0.12536376  0.25147939  0.78420364     0.09300
C1495       C  0.10802682  0.25027652  0.77665235    -0.02200
C1496       C  0.08904701  0.24827381  0.78235418    -0.00500
C1497       C  0.08681090  0.24958522  0.79576119    -0.04100
C1498       C  0.10427703  0.25226728  0.80323142     0.02900
C1499       C  0.14576517  0.25170616  0.77816544     0.09800
C1500       C  0.10971341  0.25122130  0.76292227     0.35700
C1501       C  0.10301381  0.25614389  0.81675785     0.39100
C1502       C  0.15257886  0.23507756  0.77111086    -0.04400
C1503       C  0.17152881  0.23543233  0.76530754     0.02700
C1504       C  0.18488762  0.25135161  0.76770832    -0.04000
C1505       C  0.17843172  0.26750635  0.77532115    -0.00300
C1506       C  0.15860892  0.26827468  0.77977327    -0.02800
C1507       C  0.14029379  0.21733454  0.77005781     0.36400
C1508       C  0.19235341  0.28305598  0.77894013     0.40000
C1509       C  0.17726150  0.21936082  0.75682550     0.39200
C1510       C  0.15137586  0.28625070  0.78590328     0.36100
C1511       C  0.14097404  0.25253241  0.80551543     0.36800
C1512       C  0.07213334  0.24396202  0.77425477     0.40000
N1513       N  0.18184039  0.20658070  0.75003548    -0.38000
N1514       N  0.13050270  0.20317313  0.76924258    -0.39600
N1515       N  0.20352166  0.29537072  0.78188938    -0.37400
N1516       N  0.14557488  0.30062268  0.79074292    -0.39800
N1517       N  0.11109701  0.25199078  0.75197975    -0.39500
N1518       N  0.05882115  0.24042616  0.76764808    -0.37200
N1519       N  0.10229962  0.25932176  0.82755288    -0.38200
N1520       N  0.15502579  0.25296541  0.81186541    -0.39900
C1521       C  0.25497844  0.84960451  0.76510216    -0.04800
C1522       C  0.26417166  0.85450149  0.77674085     0.09300
C1523       C  0.27254131  0.83918333  0.78425524    -0.02200
C1524       C  0.27119555  0.81905368  0.78033770    -0.00500
C1525       C  0.26155869  0.81410730  0.76884108    -0.04100
C1526       C  0.25364667  0.82948328  0.76117745     0.02900
C1527       C  0.26429430  0.87568235  0.78140604     0.09800
C1528       C  0.28261970  0.84421848  0.79600350     0.35700
C1529       C  0.24414225  0.82452508  0.74923005     0.39100
C1530       C  0.24954908  0.88214226  0.79001505    -0.04400
C1531       C  0.25042164  0.90151649  0.79525241     0.02700
C1532       C  0.26582432  0.91477600  0.79170912    -0.04000
C1533       C  0.27980457  0.90876790  0.78243612    -0.00300
C1534       C  0.27919963  0.88917890  0.77743547    -0.02800
C1535       C  0.23339821  0.86880218  0.79341894     0.36400
C1536       C  0.29513697  0.92254190  0.77828770     0.40000
C1537       C  0.23519626  0.90796262  0.80411380     0.39200
C1538       C  0.29408771  0.88274992  0.76835580     0.36100
C1539       C  0.24688396  0.86533069  0.75718984     0.36800
C1540       C  0.27958655  0.80337106  0.78816158     0.40000
N1541       N  0.22303373  0.91315415  0.81115665    -0.38000
N1542       N  0.22046253  0.85816168  0.79604331    -0.39600
N1543       N  0.30728956  0.93358888  0.77491964    -0.37400
N1544       N  0.30595468  0.87758568  0.76110385    -0.39800
N1545       N  0.29071820  0.84830509  0.80534777    -0.39500
N1546       N  0.28628033  0.79083400  0.79439456    -0.37200
N1547       N  0.23658162  0.82050043  0.73969509    -0.38200
N1548       N  0.24053619  0.87794292  0.75087231    -0.39900
C1549       C  0.35943708  0.74261164  0.73996027    -0.04800
C1550       C  0.36200103  0.74579851  0.72681427     0.09300
C1551       C  0.34518571  0.74862662  0.71897968    -0.02200
C1552       C  0.32591717  0.74831993  0.72427066    -0.00500
C1553       C  0.32338782  0.74566699  0.73746706    -0.04100
C1554       C  0.34018028  0.74277312  0.74530051     0.02900
C1555       C  0.38243774  0.74662662  0.72118730     0.09800
C1556       C  0.34776734  0.75196482  0.70547383     0.35700
C1557       C  0.33754462  0.73979189  0.75883059     0.39100
C1558       C  0.39064445  0.72963475  0.71525820    -0.04400
C1559       C  0.40925840  0.73090129  0.70910222     0.02700
C1560       C  0.41995682  0.74904978  0.70909061    -0.04000
C1561       C  0.41206419  0.76585165  0.71542121    -0.00300
C1562       C  0.39331149  0.76465380  0.72141754    -0.02800
C1563       C  0.37997671  0.71082132  0.71562228     0.36400
C1564       C  0.42302720  0.78449876  0.71551942     0.40000
C1565       C  0.41747370  0.71351129  0.70280154     0.39200
C1566       C  0.38505852  0.78197803  0.72777752     0.36100
C1567       C  0.37663483  0.73895408  0.74793232     0.36800
C1568       C  0.30862382  0.75059306  0.71615350     0.40000
N1569       N  0.42407610  0.69967593  0.69775306    -0.38000
N1570       N  0.37151110  0.69578418  0.71600401    -0.39600
N1571       N  0.43173604  0.79940697  0.71561095    -0.37400
N1572       N  0.37839080  0.79570208  0.73291419    -0.39800
N1573       N  0.34985481  0.75465583  0.69470173    -0.39500
N1574       N  0.29477867  0.75227665  0.70970642    -0.37200
N1575       N  0.33535696  0.73745125  0.76962728    -0.38200
N1576       N  0.39038167  0.73593563  0.75426404    -0.39900
C1577       C  0.24433130  0.65347721  0.71931669    -0.04800
C1578       C  0.24594917  0.63638853  0.72709784     0.09300
C1579       C  0.24851781  0.63868557  0.74033027    -0.02200
C1580       C  0.24932541  0.65795896  0.74574799    -0.00500
C1581       C  0.24770482  0.67502312  0.73794837    -0.04100
C1582       C  0.24506724  0.67271076  0.72473349     0.02900
C1583       C  0.24443160  0.61600049  0.72129920     0.09800
C1584       C  0.25066253  0.62118926  0.74831127     0.35700
C1585       C  0.24299337  0.69020863  0.71673398     0.39100
C1586       C  0.26079967  0.60768349  0.71476324    -0.04400
C1587       C  0.25879558  0.58922800  0.70840438     0.02700
C1588       C  0.24049690  0.57886311  0.70869781    -0.04000
C1589       C  0.22438748  0.58678600  0.71566028    -0.00300
C1590       C  0.22629346  0.60537589  0.72185429    -0.02800
C1591       C  0.27966930  0.61820157  0.71457518     0.36400
C1592       C  0.20573830  0.57592308  0.71628308     0.40000
C1593       C  0.27558373  0.58083155  0.70160253     0.39200
C1594       C  0.20947941  0.61380641  0.72861501     0.36100
C1595       C  0.24206958  0.65122490  0.70569625     0.36800
C1596       C  0.25193803  0.66030650  0.75932911     0.40000
N1597       N  0.28898346  0.57410290  0.69619006    -0.38000
N1598       N  0.29470879  0.62662977  0.71446027    -0.39600
N1599       N  0.19088305  0.56721004  0.71679953    -0.37400
N1600       N  0.19611159  0.62058802  0.73403166    -0.39800
N1601       N  0.25241785  0.60719964  0.75465759    -0.39500
N1602       N  0.25396283  0.66223181  0.77017218    -0.37200
N1603       N  0.24127169  0.70420860  0.71039371    -0.38200
N1604       N  0.24042759  0.64937467  0.69482181    -0.39900
C1605       C  0.15002639  0.74767032  0.76553320    -0.04800
C1606       C  0.14548222  0.74094365  0.77790050     0.09300
C1607       C  0.16099457  0.73471785  0.78604458    -0.02200
C1608       C  0.18094561  0.73555706  0.78193308    -0.00500
C1609       C  0.18550537  0.74252601  0.76963098    -0.04100
C1610       C  0.16999673  0.74850571  0.76142213     0.02900
C1611       C  0.12448080  0.74129177  0.78266734     0.09800
C1612       C  0.15635664  0.72741077  0.79866758     0.35700
C1613       C  0.17467249  0.75549827  0.74873683     0.39100
C1614       C  0.11096083  0.72604836  0.77931308    -0.04400
C1615       C  0.09171673  0.72561788  0.78471817     0.02700
C1616       C  0.08585008  0.74052865  0.79347392    -0.04000
C1617       C  0.09914472  0.75628493  0.79633807    -0.00300
C1618       C  0.11836782  0.75662171  0.79097308    -0.02800
C1619       C  0.11700221  0.71063917  0.77044311     0.36400
C1620       C  0.09293747  0.77246603  0.80458649     0.40000
C1621       C  0.07832426  0.70932318  0.78166355     0.39200
C1622       C  0.13199850  0.77274149  0.79401227     0.36100
C1623       C  0.13413492  0.75376358  0.75706975     0.36800
C1624       C  0.19685240  0.72938629  0.79036715     0.40000
N1625       N  0.06765301  0.69631002  0.77921971    -0.38000
N1626       N  0.12179164  0.69842906  0.76329779    -0.39600
N1627       N  0.08801646  0.78542969  0.81113277    -0.37400
N1628       N  0.14296507  0.78552825  0.79640108    -0.39800
N1629       N  0.15259813  0.72160006  0.80873421    -0.39500
N1630       N  0.20958524  0.72454894  0.79709297    -0.37200
N1631       N  0.17847599  0.76105332  0.73861891    -0.38200
N1632       N  0.12142446  0.75850098  0.75029760    -0.39900
C1633       C  0.85886108  0.74629293  0.76114149    -0.04800
C1634       C  0.86322449  0.73885144  0.77336780     0.09300
C1635       C  0.84753961  0.73243634  0.78130777    -0.02200
C1636       C  0.82762787  0.73358473  0.77711688    -0.00500
C1637       C  0.82324702  0.74055165  0.76477974    -0.04100
C1638       C  0.83894242  0.74694433  0.75680898     0.02900
C1639       C  0.88418394  0.73843759  0.77828780     0.09800
C1640       C  0.85198360  0.72470439  0.79385425     0.35700
C1641       C  0.83451201  0.75433638  0.74418559     0.39100
C1642       C  0.89155785  0.75478297  0.78529922    -0.04400
C1643       C  0.90982254  0.75325319  0.79183924     0.02700
C1644       C  0.92125486  0.73559514  0.79103287    -0.04000
C1645       C  0.91447139  0.71968444  0.78333902    -0.00300
C1646       C  0.89590203  0.72105439  0.77706932    -0.02800
C1647       C  0.88024643  0.77318907  0.78578593     0.36400
C1648       C  0.92614752  0.70155570  0.78233153     0.40000
C1649       C  0.91684694  0.76990146  0.79942294     0.39200
C1650       C  0.88862764  0.70447931  0.76952670     0.36100
C1651       C  0.87485640  0.75348986  0.75311669     0.36800
C1652       C  0.81156001  0.72813314  0.78562292     0.40000
N1653       N  0.92244545  0.78310716  0.80554324    -0.38000
N1654       N  0.87129863  0.78793467  0.78604676    -0.39600
N1655       N  0.93543589  0.68706737  0.78153271    -0.37400
N1656       N  0.88279678  0.69129457  0.76347562    -0.39800
N1657       N  0.85568048  0.71848108  0.80382797    -0.39500
N1658       N  0.79871568  0.72405835  0.79246923    -0.37200
N1659       N  0.83092325  0.76022108  0.73411192    -0.38200
N1660       N  0.88762275  0.75933138  0.74674057    -0.39900
C1661       C  0.75282822  0.63709293  0.73564998    -0.04800
C1662       C  0.76092037  0.63415789  0.72341470     0.09300
C1663       C  0.76809666  0.65072696  0.71650306    -0.02200
C1664       C  0.76708808  0.67009171  0.72175984    -0.00500
C1665       C  0.75913435  0.67303031  0.73404273    -0.04100
C1666       C  0.75214369  0.65641080  0.74100878     0.02900
C1667       C  0.76190330  0.61354555  0.71784158     0.09800
C1668       C  0.77644967  0.64782162  0.70394541     0.35700
C1669       C  0.74382784  0.65928658  0.75357966     0.39100
C1670       C  0.74735134  0.60712599  0.70908449    -0.04400
C1671       C  0.74808154  0.58761471  0.70402834     0.02700
C1672       C  0.76355141  0.57438943  0.70754807    -0.04000
C1673       C  0.77802326  0.58079418  0.71640816    -0.00300
C1674       C  0.77723731  0.60032657  0.72147820    -0.02800
C1675       C  0.73165071  0.62068176  0.70523017     0.36400
C1676       C  0.79408796  0.56753877  0.72004093     0.40000
C1677       C  0.73248599  0.58093510  0.69549547     0.39200
C1678       C  0.79245248  0.60707545  0.73025525     0.36100
C1679       C  0.74486675  0.62020503  0.74260821     0.36800
C1680       C  0.77408622  0.68710342  0.71449821     0.40000
N1681       N  0.72002259  0.57552285  0.68873397    -0.38000
N1682       N  0.71918879  0.63152601  0.70208893    -0.39600
N1683       N  0.80693100  0.55700588  0.72298034    -0.37400
N1684       N  0.80455750  0.61261173  0.73723611    -0.39800
N1685       N  0.78308161  0.64550665  0.69391250    -0.39500
N1686       N  0.77967078  0.70073589  0.70876328    -0.37200
N1687       N  0.73703643  0.66161208  0.76356792    -0.38200
N1688       N  0.73847262  0.60667925  0.74809549    -0.39900
C1689       C  0.64902212  0.75037576  0.73596635    -0.04800
C1690       C  0.64519243  0.74586440  0.72310938     0.09300
C1691       C  0.66118905  0.74112133  0.71495292    -0.02200
C1692       C  0.68091881  0.74132331  0.71954930    -0.00500
C1693       C  0.68478969  0.74559339  0.73247385    -0.04100
C1694       C  0.66868963  0.74997707  0.74068009     0.02900
C1695       C  0.62440160  0.74703755  0.71796762     0.09800
C1696       C  0.65728582  0.73598877  0.70180444     0.35700
C1697       C  0.67235507  0.75410812  0.75399449     0.39100
C1698       C  0.61859568  0.76371963  0.71068412    -0.04400
C1699       C  0.59935972  0.76462993  0.70535097     0.02700
C1700       C  0.58565686  0.74889122  0.70733233    -0.04000
C1701       C  0.59129716  0.73243464  0.71493334    -0.00300
C1702       C  0.61060426  0.73152808  0.72023547    -0.02800
C1703       C  0.63247543  0.78004749  0.70877201     0.36400
C1704       C  0.57755334  0.71600977  0.71686542     0.40000
C1705       C  0.59357658  0.78202462  0.69802805     0.39200
C1706       C  0.61638264  0.71453659  0.72792476     0.36100
C1707       C  0.63267701  0.75568650  0.74429624     0.36800
C1708       C  0.69729159  0.73728206  0.71094482     0.40000
N1709       N  0.58900585  0.79592148  0.69219191    -0.38000
N1710       N  0.64361847  0.79301941  0.70729351    -0.39600
N1711       N  0.56659600  0.70288661  0.71837865    -0.37400
N1712       N  0.62096277  0.70103469  0.73412187    -0.39800
N1713       N  0.65414019  0.73186481  0.69132366    -0.39500
N1714       N  0.71037086  0.73400534  0.70410678    -0.37200
N1715       N  0.67530711  0.75754708  0.76459684    -0.38200
N1716       N  0.61958351  0.75992532  0.75090293    -0.39900
C1717       C  0.85818345  0.23489030  0.76691126    -0.04800
C1718       C  0.86199754  0.24648990  0.77784007     0.09300
C1719       C  0.84616033  0.25663698  0.78384344    -0.02200
C1720       C  0.82663267  0.25510921  0.77899803    -0.00500
C1721       C  0.82287629  0.24374259  0.76797046    -0.04100
C1722       C  0.83869089  0.23358600  0.76196459     0.02900
C1723       C  0.88257409  0.24756010  0.78333517     0.09800
C1724       C  0.85001005  0.26858041  0.79506014     0.35700
C1725       C  0.83479937  0.22172471  0.75071705     0.39100
C1726       C  0.89520175  0.26377862  0.78044547    -0.04400
C1727       C  0.91415512  0.26531317  0.78619949     0.02700
C1728       C  0.92050292  0.25077024  0.79505761    -0.04000
C1729       C  0.90793383  0.23432250  0.79773803    -0.00300
C1730       C  0.88914508  0.23266753  0.79181693    -0.02800
C1731       C  0.88849842  0.27904355  0.77167361     0.36400
C1732       C  0.91441528  0.21885364  0.80643852     0.40000
C1733       C  0.92677394  0.28230277  0.78335908     0.39200
C1734       C  0.87644053  0.21565303  0.79447345     0.36100
C1735       C  0.87433257  0.22423694  0.76080888     0.36800
C1736       C  0.81028077  0.26485729  0.78549193     0.40000
N1737       N  0.93685273  0.29585422  0.78108456    -0.38000
N1738       N  0.88308444  0.29122768  0.76469515    -0.39600
N1739       N  0.91952910  0.20651100  0.81339775    -0.37400
N1740       N  0.86628528  0.20206311  0.79650187    -0.39800
N1741       N  0.85316232  0.27815732  0.80398154    -0.39500
N1742       N  0.79717434  0.27248342  0.79071010    -0.37200
N1743       N  0.83158577  0.21226782  0.74175233    -0.38200
N1744       N  0.88721632  0.21568419  0.75596059    -0.39900
C1745       C  0.76265771  0.34295507  0.73651302    -0.04800
C1746       C  0.76328290  0.34673106  0.72332679     0.09300
C1747       C  0.76375389  0.33050352  0.71476014    -0.02200
C1748       C  0.76297660  0.31067552  0.71933121    -0.00500
C1749       C  0.76188848  0.30691945  0.73251376    -0.04100
C1750       C  0.76203512  0.32314381  0.74108641     0.02900
C1751       C  0.76262209  0.36779996  0.71842894     0.09800
C1752       C  0.76483415  0.33428287  0.70122048     0.35700
C1753       C  0.76130995  0.31938117  0.75463805     0.39100
C1754       C  0.78017982  0.37744884  0.71432396    -0.04400
C1755       C  0.77931605  0.39699833  0.70930018     0.02700
C1756       C  0.76089934  0.40703614  0.70833205    -0.04000
C1757       C  0.74341257  0.39756971  0.71268668    -0.00300
C1758       C  0.74426161  0.37800918  0.71768508    -0.02800
C1759       C  0.79909271  0.36712470  0.71512086     0.36400
C1760       C  0.72447942  0.40784722  0.71181663     0.40000
C1761       C  0.79737165  0.40679642  0.70503500     0.39200
C1762       C  0.72616985  0.36813352  0.72181210     0.36100
C1763       C  0.76248901  0.35951848  0.74536898     0.36800
C1764       C  0.76323739  0.29410345  0.71048194     0.40000
N1765       N  0.81174222  0.41469393  0.70164125    -0.38000
N1766       N  0.81417834  0.35885269  0.71571079    -0.39600
N1767       N  0.70936476  0.41604918  0.71113808    -0.37400
N1768       N  0.71179302  0.36015398  0.72511508    -0.39800
N1769       N  0.76579182  0.33739210  0.69042862    -0.39500
N1770       N  0.76343376  0.28088161  0.70341166    -0.37200
N1771       N  0.76081925  0.31625717  0.76544016    -0.38200
N1772       N  0.76230967  0.37275006  0.75243072    -0.39900
C1773       C  0.65037331  0.24043105  0.73695414    -0.04800
C1774       C  0.64692557  0.23392835  0.72438540     0.09300
C1775       C  0.66316592  0.22785076  0.71678963    -0.02200
C1776       C  0.68270415  0.22846214  0.72168098    -0.00500
C1777       C  0.68615030  0.23503824  0.73421958    -0.04100
C1778       C  0.66990230  0.24076471  0.74190276     0.02900
C1779       C  0.62619573  0.23351834  0.71908606     0.09800
C1780       C  0.65973580  0.22099084  0.70391338     0.35700
C1781       C  0.67334260  0.24697573  0.75490639     0.39100
C1782       C  0.62003432  0.24830432  0.71039239    -0.04400
C1783       C  0.60082564  0.24752342  0.70500071     0.02700
C1784       C  0.58755331  0.23193098  0.70826658    -0.04000
C1785       C  0.59367170  0.21722903  0.71705761    -0.00300
C1786       C  0.61289131  0.21808181  0.72248929    -0.02800
C1787       C  0.63356179  0.26430437  0.70694980     0.36400
C1788       C  0.58061970  0.20061523  0.71999888     0.40000
C1789       C  0.59468330  0.26293542  0.69615061     0.39200
C1790       C  0.61918429  0.20285360  0.73141219     0.36100
C1791       C  0.63381519  0.24704329  0.74471318     0.36800
C1792       C  0.69932518  0.22214581  0.71387295     0.40000
N1793       N  0.58978479  0.27518133  0.68906004    -0.38000
N1794       N  0.64439223  0.27701229  0.70416920    -0.39600
N1795       N  0.57028470  0.18726255  0.72228082    -0.37400
N1796       N  0.62425638  0.19079337  0.73858001    -0.39800
N1797       N  0.65697674  0.21560136  0.69362295    -0.39500
N1798       N  0.71262937  0.21703352  0.70770260    -0.37200
N1799       N  0.67611287  0.25186399  0.76529638    -0.38200
N1800       N  0.62056279  0.25232384  0.75087226    -0.39900
C1801       C  0.76214957  0.10760804  0.79478158    -0.04800
C1802       C  0.74705083  0.11273196  0.78607254     0.09300
C1803       C  0.73258036  0.09842513  0.78267953    -0.02200
C1804       C  0.73343235  0.07893374  0.78776413    -0.00500
C1805       C  0.74848695  0.07378768  0.79655581    -0.04100
C1806       C  0.76278698  0.08828187  0.80009233     0.02900
C1807       C  0.74690472  0.13303970  0.78012021     0.09800
C1808       C  0.71660488  0.10392962  0.77411716     0.35700
C1809       C  0.77844182  0.08323826  0.80902135     0.39100
C1810       C  0.75795922  0.13653711  0.76894823    -0.04400
C1811       C  0.75855730  0.15578968  0.76354176     0.02700
C1812       C  0.74814808  0.17170294  0.76929552    -0.04000
C1813       C  0.73687126  0.16815284  0.78038817    -0.00300
C1814       C  0.73627897  0.14886915  0.78580078    -0.02800
C1815       C  0.76894680  0.12029855  0.76314260     0.36400
C1816       C  0.72615163  0.18445519  0.78630847     0.40000
C1817       C  0.76993993  0.15929009  0.75205918     0.39200
C1818       C  0.72500706  0.14532542  0.79732064     0.36100
C1819       C  0.77703859  0.12231752  0.79826096     0.36800
C1820       C  0.71839753  0.06440118  0.78425713     0.40000
N1821       N  0.77900821  0.16209673  0.74288961    -0.38000
N1822       N  0.77771419  0.10727906  0.75858286    -0.39600
N1823       N  0.71760632  0.19750981  0.79099774    -0.37400
N1824       N  0.71604241  0.14247564  0.80652736    -0.39800
N1825       N  0.70376626  0.10838147  0.76736567    -0.39500
N1826       N  0.70644414  0.05276454  0.78144886    -0.37200
N1827       N  0.79090755  0.07925637  0.81616782    -0.38200
N1828       N  0.78888942  0.13409840  0.80099909    -0.39900
C1829       C  0.72780889  0.88341048  0.78091159    -0.04800
C1830       C  0.74291252  0.86934967  0.78350578     0.09300
C1831       C  0.75779260  0.87392855  0.79251840    -0.02200
C1832       C  0.75776857  0.89257112  0.79874694    -0.00500
C1833       C  0.74289352  0.90681266  0.79595729    -0.04100
C1834       C  0.72777301  0.90206817  0.78714271     0.02900
C1835       C  0.74335036  0.84968171  0.77673195     0.09800
C1836       C  0.77312878  0.85936496  0.79537410     0.35700
C1837       C  0.71173434  0.91610042  0.78486799     0.39100
C1838       C  0.75703370  0.84650781  0.76676296    -0.04400
C1839       C  0.75861841  0.82754779  0.76102435     0.02700
C1840       C  0.74652110  0.81159451  0.76521527    -0.04000
C1841       C  0.73227068  0.81500655  0.77486600    -0.00300
C1842       C  0.73073837  0.83397379  0.78062188    -0.02800
C1843       C  0.76960879  0.86278888  0.76250654     0.36400
C1844       C  0.71936113  0.79890873  0.77900199     0.40000
C1845       C  0.77281023  0.82437082  0.75085271     0.39200
C1846       C  0.71642541  0.83728370  0.79071475     0.36100
C1847       C  0.71227201  0.87862512  0.77185555     0.36800
C1848       C  0.77325630  0.89719021  0.80788715     0.40000
N1849       N  0.78417897  0.82177407  0.74276734    -0.38000
N1850       N  0.77962859  0.87582243  0.75915969    -0.39600
N1851       N  0.70895644  0.78611007  0.78223865    -0.37400
N1852       N  0.70497370  0.84000112  0.79873798    -0.39800
N1853       N  0.78534852  0.84770837  0.79758931    -0.39500
N1854       N  0.78559861  0.90083034  0.81519618    -0.37200
N1855       N  0.69890418  0.92729879  0.78316008    -0.38200
N1856       N  0.69981425  0.87477787  0.76467245    -0.39900
C1857       C  0.19690571  0.49989066  0.60000521    -0.04800
C1858       C  0.21242844  0.49505701  0.59149314     0.09300
C1859       C  0.23143267  0.49024813  0.59632131    -0.02200
C1860       C  0.23501536  0.49085971  0.60954156    -0.00500
C1861       C  0.21971465  0.49663159  0.61800241    -0.04100
C1862       C  0.20061265  0.50104625  0.61317120     0.02900
C1863       C  0.20870250  0.49599623  0.57745029     0.09800
C1864       C  0.24730190  0.48473036  0.58767895     0.35700
C1865       C  0.18459922  0.50634215  0.62176608     0.39100
C1866       C  0.20609458  0.51473945  0.57152206    -0.04400
C1867       C  0.19967251  0.51582745  0.55879121     0.02700
C1868       C  0.19624748  0.49819135  0.55180567    -0.04000
C1869       C  0.20036369  0.47948428  0.55739721    -0.00300
C1870       C  0.20632113  0.47836398  0.57024350    -0.02800
C1871       C  0.20958842  0.53292134  0.57866828     0.36400
C1872       C  0.19768657  0.46135036  0.55006864     0.40000
C1873       C  0.19650464  0.53511655  0.55287572     0.39200
C1874       C  0.20922169  0.45905901  0.57617683     0.36100
C1875       C  0.17697513  0.50332230  0.59516991     0.36800
C1876       C  0.25462685  0.48605881  0.61441204     0.40000
N1877       N  0.19404357  0.55051772  0.54815586    -0.38000
N1878       N  0.21236494  0.54737365  0.58442209    -0.39600
N1879       N  0.19561528  0.44692912  0.54416371    -0.37400
N1880       N  0.21157062  0.44363158  0.58088446    -0.39800
N1881       N  0.25992219  0.48016069  0.58079112    -0.39500
N1882       N  0.27026200  0.48221030  0.61831354    -0.37200
N1883       N  0.17179727  0.51059869  0.62859783    -0.38200
N1884       N  0.16109717  0.50591679  0.59124849    -0.39900
C1885       C  0.21000265  0.49884331  0.42888507    -0.04800
C1886       C  0.20619954  0.48244344  0.42083244     0.09300
C1887       C  0.19666427  0.46531830  0.42571075    -0.02200
C1888       C  0.19046433  0.46481537  0.43850014    -0.00500
C1889       C  0.19345806  0.48156533  0.44642343    -0.04100
C1890       C  0.20360382  0.49844959  0.44164675     0.02900
C1891       C  0.21110395  0.48377521  0.40700077     0.09800
C1892       C  0.19263150  0.44849619  0.41743523     0.35700
C1893       C  0.20650860  0.51584548  0.44963071     0.39100
C1894       C  0.22949506  0.47672493  0.40238461    -0.04400
C1895       C  0.23418408  0.47849086  0.38935451     0.02700
C1896       C  0.22046474  0.48740011  0.38086170    -0.04000
C1897       C  0.20186292  0.49406215  0.38552149    -0.00300
C1898       C  0.19729234  0.49237135  0.39854088    -0.02800
C1899       C  0.24365595  0.46788130  0.41112052     0.36400
C1900       C  0.18701923  0.50195289  0.37687213     0.40000
C1901       C  0.25335672  0.47159292  0.38480419     0.39200
C1902       C  0.17832005  0.49951313  0.40329219     0.36100
C1903       C  0.21987006  0.51640492  0.42385227     0.36800
C1904       C  0.18101783  0.44702451  0.44354765     0.40000
N1905       N  0.26866022  0.46602491  0.38121893    -0.38000
N1906       N  0.25491629  0.46085137  0.41812731    -0.39600
N1907       N  0.17514214  0.50818295  0.36997386    -0.37400
N1908       N  0.16322122  0.50523966  0.40711519    -0.39800
N1909       N  0.18931624  0.43510358  0.41082387    -0.39500
N1910       N  0.17356504  0.43283359  0.44763602    -0.37200
N1911       N  0.20878919  0.52976847  0.45597201    -0.38200
N1912       N  0.22770008  0.53038933  0.41976486    -0.39900
C1913       C  0.52017529  0.18343672  0.57835102    -0.04800
C1914       C  0.50874953  0.20069237  0.58067327     0.09300
C1915       C  0.49724998  0.20902278  0.57081835    -0.02200
C1916       C  0.49692285  0.19997815  0.55870940    -0.00500
C1917       C  0.50850824  0.18274783  0.55627617    -0.04100
C1918       C  0.52015175  0.17452558  0.56621022     0.02900
C1919       C  0.50771023  0.20920163  0.59379449     0.09800
C1920       C  0.48536383  0.22666754  0.57327931     0.35700
C1921       C  0.53228030  0.15695472  0.56401175     0.39100
C1922       C  0.52037825  0.22497252  0.59747333    -0.04400
C1923       C  0.51968094  0.23244585  0.61001316     0.02700
C1924       C  0.50634294  0.22408449  0.61896157    -0.04000
C1925       C  0.49365315  0.20828012  0.61519049    -0.00300
C1926       C  0.49427332  0.20099765  0.60264926    -0.02800
C1927       C  0.53429366  0.23328321  0.58836636     0.36400
C1928       C  0.48063234  0.19869980  0.62434076     0.40000
C1929       C  0.53254216  0.24888838  0.61363694     0.39200
C1930       C  0.48131512  0.18471216  0.59887335     0.36100
C1931       C  0.53173101  0.17469539  0.58857915     0.36800
C1932       C  0.48363010  0.20770354  0.54904191     0.40000
N1933       N  0.54282409  0.26201349  0.61648676    -0.38000
N1934       N  0.54539996  0.23985998  0.58108004    -0.39600
N1935       N  0.47027427  0.19103225  0.63164441    -0.37400
N1936       N  0.47102451  0.17169478  0.59585435    -0.39800
N1937       N  0.47592921  0.24076534  0.57527995    -0.39500
N1938       N  0.47287466  0.21377977  0.54138116    -0.37200
N1939       N  0.54189517  0.14286762  0.56234690    -0.38200
N1940       N  0.54085187  0.16773272  0.59677905    -0.39900
C1941       C  0.50028821  0.22319319  0.40569649    -0.04800
C1942       C  0.51011602  0.20638114  0.41075549     0.09300
C1943       C  0.52037466  0.19334092  0.40250481    -0.02200
C1944       C  0.52026703  0.19669568  0.38925209    -0.00500
C1945       C  0.50971718  0.21309359  0.38409323    -0.04100
C1946       C  0.50010722  0.22656644  0.39244014     0.02900
C1947       C  0.50860065  0.20144089  0.42464469     0.09800
C1948       C  0.53058155  0.17607987  0.40767926     0.35700
C1949       C  0.49043602  0.24423070  0.38742489     0.39100
C1950       C  0.49200391  0.19066333  0.42915859    -0.04400
C1951       C  0.49185440  0.18306079  0.44165863     0.02700
C1952       C  0.50807882  0.18667494  0.44991172    -0.04000
C1953       C  0.52385801  0.19903717  0.44574378    -0.00300
C1954       C  0.52422392  0.20618453  0.43309432    -0.02800
C1955       C  0.47512898  0.18725815  0.42084474     0.36400
C1956       C  0.54012634  0.20373782  0.45427897     0.40000
C1957       C  0.47490069  0.17153968  0.44603169     0.39200
C1958       C  0.54081684  0.21814497  0.42866988     0.36100
C1959       C  0.49016783  0.23689555  0.41416359     0.36800
C1960       C  0.53038725  0.18273729  0.38094071     0.40000
N1961       N  0.46138140  0.16232405  0.44950441    -0.38000
N1962       N  0.46160973  0.18478404  0.41422043    -0.39600
N1963       N  0.55306143  0.20758241  0.46111316    -0.37400
N1964       N  0.55404344  0.22771982  0.42513295    -0.39800
N1965       N  0.53868366  0.16232729  0.41185449    -0.39500
N1966       N  0.53853333  0.17158091  0.37435665    -0.37200
N1967       N  0.48279645  0.25835659  0.38340170    -0.38200
N1968       N  0.48207633  0.24781843  0.42092735    -0.39900
C1969       C  0.52116289  0.96966473  0.49372937    -0.04800
C1970       C  0.50507077  0.97917016  0.49989784     0.09300
C1971       C  0.48992601  0.96746676  0.50548501    -0.02200
C1972       C  0.49104387  0.94644299  0.50510368    -0.00500
C1973       C  0.50732209  0.93693570  0.49913332    -0.04100
C1974       C  0.52224570  0.94863674  0.49329953     0.02900
C1975       C  0.50426910  0.00152602  0.50064383     0.09800
C1976       C  0.47320621  0.97707780  0.51168723     0.35700
C1977       C  0.53907315  0.93907697  0.48718258     0.39100
C1978       C  0.49055925  0.01233501  0.49316273    -0.04400
C1979       C  0.49015957  0.03338794  0.49367121     0.02700
C1980       C  0.50369540  0.04385339  0.50151610    -0.04000
C1981       C  0.51722916  0.03298721  0.50914110    -0.00300
C1982       C  0.51741284  0.01192965  0.50875747    -0.02800
C1983       C  0.47684943  0.00175728  0.48491423     0.36400
C1984       C  0.53146001  0.04341311  0.51710640     0.40000
C1985       C  0.47531062  0.04422709  0.48643534     0.39200
C1986       C  0.53123431  0.00090177  0.51668417     0.36100
C1987       C  0.53676770  0.98157819  0.48795435     0.36800
C1988       C  0.47513414  0.93458677  0.51058233     0.40000
N1989       N  0.46340302  0.05287058  0.48071251    -0.38000
N1990       N  0.46582682  0.99329673  0.47840442    -0.39600
N1991       N  0.54282485  0.05168567  0.52347490    -0.37400
N1992       N  0.54230825  0.99207772  0.52295066    -0.39800
N1993       N  0.45978206  0.98473669  0.51654512    -0.39500
N1994       N  0.46243500  0.92510843  0.51492204    -0.37200
N1995       N  0.55249343  0.93147006  0.48228575    -0.38200
N1996       N  0.54928657  0.99111304  0.48345603    -0.39900
C1997       C  0.52469074  0.79072117  0.57467587    -0.04800
C1998       C  0.50607677  0.78460484  0.57953365     0.09300
C1999       C  0.48908082  0.78539833  0.57168001    -0.02200
C2000       C  0.49062989  0.79247222  0.55908231    -0.00500
C2001       C  0.50917068  0.79895520  0.55428585    -0.04100
C2002       C  0.52618407  0.79815429  0.56215734     0.02900
C2003       C  0.50419268  0.77843039  0.59316840     0.09800
C2004       C  0.46991346  0.77936693  0.57671168     0.35700
C2005       C  0.54516434  0.80535663  0.55745732     0.39100
C2006       C  0.49932971  0.79276674  0.60249196    -0.04400
C2007       C  0.49803156  0.78720150  0.61538803     0.02700
C2008       C  0.50186322  0.76731253  0.61907022    -0.04000
C2009       C  0.50648487  0.75290649  0.60974006    -0.00300
C2010       C  0.50740907  0.75840798  0.59680058    -0.02800
C2011       C  0.49571339  0.81328907  0.59877770     0.36400
C2012       C  0.51005493  0.73237782  0.61346058     0.40000
C2013       C  0.49311372  0.80203234  0.62491818     0.39200
C2014       C  0.51141800  0.74346680  0.58718190     0.36100
C2015       C  0.54223993  0.78961898  0.58266486     0.36800
C2016       C  0.47295237  0.79402521  0.55125208     0.40000
N2017       N  0.48915911  0.81381916  0.63254303    -0.38000
N2018       N  0.49280357  0.82964773  0.59578361    -0.39600
N2019       N  0.51288498  0.71600158  0.61645181    -0.37400
N2020       N  0.51446685  0.73153083  0.57948230    -0.39800
N2021       N  0.45464117  0.77459740  0.58078920    -0.39500
N2022       N  0.45884210  0.79538740  0.54501323    -0.37200
N2023       N  0.56029153  0.81122481  0.55375171    -0.38200
N2024       N  0.55621998  0.78864075  0.58905310    -0.39900
C2025       C  0.51913287  0.77378535  0.43077929    -0.04800
C2026       C  0.50504362  0.78104737  0.42197655     0.09300
C2027       C  0.49047247  0.79478356  0.42603746    -0.02200
C2028       C  0.49041003  0.80177729  0.43867721    -0.00500
C2029       C  0.50525111  0.79547914  0.44733374    -0.04100
C2030       C  0.51940206  0.78113761  0.44337985     0.02900
C2031       C  0.50616238  0.77534291  0.40820229     0.09800
C2032       C  0.47583376  0.80213390  0.41705649     0.35700
C2033       C  0.53498144  0.77483271  0.45201179     0.39100
C2034       C  0.49394290  0.76005899  0.40329650    -0.04400
C2035       C  0.49369032  0.75604037  0.39011257     0.02700
C2036       C  0.50559020  0.76742828  0.38167043    -0.04000
C2037       C  0.51789914  0.78269776  0.38667425    -0.00300
C2038       C  0.51841542  0.78636445  0.39987986    -0.02800
C2039       C  0.48157301  0.74851533  0.41186764     0.36400
C2040       C  0.52910481  0.79558198  0.37821869     0.40000
C2041       C  0.48128191  0.74000482  0.38531211     0.39200
C2042       C  0.53137867  0.80175190  0.40494554     0.36100
C2043       C  0.53359332  0.75903997  0.42675349     0.36800
C2044       C  0.47492926  0.81541890  0.44277805     0.40000
N2045       N  0.47130850  0.72724527  0.38150676    -0.38000
N2046       N  0.47172727  0.73930613  0.41872446    -0.39600
N2047       N  0.53792595  0.80600115  0.37149408    -0.37400
N2048       N  0.54179961  0.81391930  0.40903179    -0.39800
N2049       N  0.46422312  0.80799278  0.40984967    -0.39500
N2050       N  0.46253957  0.82625648  0.44604461    -0.37200
N2051       N  0.54749221  0.76989417  0.45887759    -0.38200
N2052       N  0.54506695  0.74720200  0.42353309    -0.39900
C2053       C  0.02430086  0.47675472  0.49545270    -0.04800
C2054       C  0.01313713  0.49309357  0.49991997     0.09300
C2055       C  0.02293185  0.51051107  0.50409057    -0.02200
C2056       C  0.04391185  0.51148976  0.50398247    -0.00500
C2057       C  0.05521795  0.49493205  0.49979231    -0.04100
C2058       C  0.04525910  0.47753407  0.49552756     0.02900
C2059       C  0.99097855  0.49172574  0.50045597     0.09800
C2060       C  0.01132428  0.52747246  0.50837834     0.35700
C2061       C  0.05647729  0.46007879  0.49164261     0.39100
C2062       C  0.98166429  0.48298682  0.51109113    -0.04400
C2063       C  0.96078174  0.48118137  0.51150928     0.02700
C2064       C  0.94907127  0.48839731  0.50134898    -0.04000
C2065       C  0.95846451  0.49725577  0.49071772    -0.00300
C2066       C  0.97937336  0.49876347  0.49025178    -0.02800
C2067       C  0.99365256  0.47578235  0.52158659     0.36400
C2068       C  0.94666676  0.50544190  0.48042074     0.40000
C2069       C  0.95143644  0.47126257  0.52221239     0.39200
C2070       C  0.98901761  0.50754163  0.47926593     0.36100
C2071       C  0.01411067  0.45916304  0.49070894     0.36800
C2072       C  0.05376814  0.52980040  0.50779087     0.40000
N2073       N  0.94398146  0.46330052  0.53072879    -0.38000
N2074       N  0.00323839  0.47006137  0.52995613    -0.39600
N2075       N  0.93725781  0.51198309  0.47221135    -0.37400
N2076       N  0.99671983  0.51451828  0.47049565    -0.39800
N2077       N  0.00198889  0.54098233  0.51174730    -0.39500
N2078       N  0.06157146  0.54446005  0.51080335    -0.37200
N2079       N  0.06535817  0.44610028  0.48855794    -0.38200
N2080       N  0.00590617  0.44522284  0.48686525    -0.39900
C2081       C  0.79016681  0.50566205  0.57186125    -0.04800
C2082       C  0.79881960  0.49145451  0.58007673     0.09300
C2083       C  0.81377348  0.47861785  0.57546472    -0.02200
C2084       C  0.82016766  0.48005514  0.56273849    -0.00500
C2085       C  0.81191511  0.49464894  0.55454751    -0.04100
C2086       C  0.79674946  0.50733666  0.55915283     0.02900
C2087       C  0.79271866  0.49053182  0.59375652     0.09800
C2088       C  0.82288502  0.46419681  0.58393561     0.35700
C2089       C  0.78865780  0.52282539  0.55105070     0.39100
C2090       C  0.77604792  0.47915612  0.59748587    -0.04400
C2091       C  0.77005417  0.47871801  0.61034601     0.02700
C2092       C  0.78078623  0.48963061  0.61961331    -0.04000
C2093       C  0.79779721  0.50067256  0.61584103    -0.00300
C2094       C  0.80367756  0.50111230  0.60297963    -0.02800
C2095       C  0.76505613  0.46792555  0.58802802     0.36400
C2096       C  0.80970480  0.51118430  0.62519350     0.40000
C2097       C  0.75240613  0.46756911  0.61390586     0.39200
C2098       C  0.82113013  0.51240844  0.59919254     0.36100
C2099       C  0.77487128  0.51893453  0.57665342     0.36800
C2100       C  0.83517969  0.46633090  0.55806886     0.40000
N2101       N  0.73831471  0.45865978  0.61671574    -0.38000
N2102       N  0.75633163  0.45896026  0.58046024    -0.39600
N2103       N  0.81922018  0.51963323  0.63261565    -0.37400
N2104       N  0.83508161  0.52135307  0.59615788    -0.39800
N2105       N  0.83023560  0.45278548  0.59071857    -0.39500
N2106       N  0.84716803  0.45540403  0.55434361    -0.37200
N2107       N  0.78224934  0.53528530  0.54463517    -0.38200
N2108       N  0.76268095  0.52947684  0.58055297    -0.39900
C2109       C  0.82125712  0.49836878  0.42500425    -0.04800
C2110       C  0.80467518  0.48699176  0.42107108     0.09300
C2111       C  0.79412452  0.47551405  0.43009234    -0.02200
C2112       C  0.79989031  0.47564863  0.44298957    -0.00500
C2113       C  0.81652708  0.48695506  0.44694274    -0.04100
C2114       C  0.82722108  0.49829498  0.43785761     0.02900
C2115       C  0.79820555  0.48719072  0.40742466     0.09800
C2116       C  0.77765824  0.46307873  0.42599311     0.35700
C2117       C  0.84427096  0.51014385  0.44171862     0.39100
C2118       C  0.80937012  0.47696780  0.39812174    -0.04400
C2119       C  0.80340257  0.47740128  0.38527471     0.02700
C2120       C  0.78568384  0.48734441  0.38166419    -0.04000
C2121       C  0.77442193  0.49742597  0.39103444    -0.00300
C2122       C  0.78085053  0.49761269  0.40380489    -0.02800
C2123       C  0.82697828  0.46585408  0.40179502     0.36400
C2124       C  0.75581961  0.50704293  0.38768078     0.40000
C2125       C  0.81601893  0.46825249  0.37572957     0.39200
C2126       C  0.76961065  0.50855225  0.41328594     0.36100
C2127       C  0.83229938  0.51003783  0.41576952     0.36800
C2128       C  0.78922775  0.46339661  0.45207778     0.40000
N2129       N  0.82612652  0.46104518  0.36810525    -0.38000
N2130       N  0.84102433  0.45697244  0.40470118    -0.39600
N2131       N  0.74091430  0.51466475  0.38508127    -0.37400
N2132       N  0.76071445  0.51722776  0.42090392    -0.39800
N2133       N  0.76456255  0.45313958  0.42267363    -0.39500
N2134       N  0.78074385  0.45359729  0.45933226    -0.37200
N2135       N  0.85792324  0.51955127  0.44474862    -0.38200
N2136       N  0.84118594  0.51920094  0.40837384    -0.39900
C2137       C  0.52069590  0.97681670  0.99480249    -0.04800
C2138       C  0.51130828  0.98974879  0.00349812     0.09300
C2139       C  0.52291839  0.00145762  0.01180128    -0.02200
C2140       C  0.54388338  0.00040838  0.01132405    -0.00500
C2141       C  0.55336661  0.98758254  0.00251660    -0.04100
C2142       C  0.54162992  0.97576716  0.99426688     0.02900
C2143       C  0.48911202  0.99130849  0.00364522     0.09800
C2144       C  0.51321325  0.01464338  0.02079891     0.35700
C2145       C  0.55100200  0.96211518  0.98540512     0.39100
C2146       C  0.47762714  0.97691525  0.01010787    -0.04400
C2147       C  0.45667374  0.97766189  0.00956386     0.02700
C2148       C  0.44704591  0.99305472  0.00272417    -0.04000
C2149       C  0.45861362  0.00761706  0.99638086    -0.00300
C2150       C  0.47958059  0.00672650  0.99685467    -0.02800
C2151       C  0.48743606  0.96126810  0.01727416     0.36400
C2152       C  0.44901519  0.02375897  0.98955155     0.40000
C2153       C  0.44507171  0.96201397  0.01556440     0.39200
C2154       C  0.49144963  0.02164901  0.99033923     0.36100
C2155       C  0.50871899  0.96452982  0.98641168     0.36800
C2156       C  0.55562838  0.01311012  0.01959548     0.40000
N2157       N  0.43578939  0.94949322  0.02028821    -0.38000
N2158       N  0.49525642  0.94880538  0.02301274    -0.39600
N2159       N  0.44143672  0.03666153  0.98407784    -0.37400
N2160       N  0.50101476  0.03353851  0.98520398    -0.39800
N2161       N  0.50542994  0.02516321  0.02795867    -0.39500
N2162       N  0.56495948  0.02327841  0.02619481    -0.37200
N2163       N  0.55845558  0.95126814  0.97829930    -0.38200
N2164       N  0.49912490  0.95468343  0.97977203    -0.39900
C2165       C  0.69867582  0.97147395  0.92642728    -0.04800
C2166       C  0.71156703  0.98754244  0.92373445     0.09300
C2167       C  0.71604706  0.00165568  0.93323799    -0.02200
C2168       C  0.70710596  0.00008375  0.94531016    -0.00500
C2169       C  0.69357593  0.98441893  0.94786691    -0.04100
C2170       C  0.68964322  0.96993364  0.93844932     0.02900
C2171       C  0.71910314  0.99026833  0.91053606     0.09800
C2172       C  0.72951208  0.01800989  0.93046586     0.35700
C2173       C  0.67648338  0.95329370  0.94115696     0.39100
C2174       C  0.70779619  0.00150700  0.90181965    -0.04400
C2175       C  0.71326615  0.00204789  0.88892703     0.02700
C2176       C  0.73027514  0.99155686  0.88473223    -0.04000
C2177       C  0.74211574  0.98107227  0.89358146    -0.00300
C2178       C  0.73648372  0.98037679  0.90647066    -0.02800
C2179       C  0.69017530  0.01205440  0.90610205     0.36400
C2180       C  0.76017886  0.97117218  0.88944235     0.40000
C2181       C  0.70073753  0.01250599  0.87989199     0.39200
C2182       C  0.74832187  0.96923247  0.91553521     0.36100
C2183       C  0.69449824  0.95671217  0.91669855     0.36800
C2184       C  0.71115507  0.01509202  0.95489658     0.40000
N2185       N  0.69070960  0.02077770  0.87267482    -0.38000
N2186       N  0.67615594  0.02048460  0.90955244    -0.39600
N2187       N  0.77462799  0.96334330  0.88613848    -0.37400
N2188       N  0.75775206  0.96034407  0.92278259    -0.39800
N2189       N  0.74025618  0.03105944  0.92824647    -0.39500
N2190       N  0.71435468  0.02706496  0.96255177    -0.37200
N2191       N  0.66601415  0.93998663  0.94329229    -0.38200
N2192       N  0.69127285  0.94498218  0.90889770    -0.39900
C2193       C  0.73297377  0.96866642  0.09586414    -0.04800
C2194       C  0.71689108  0.97958266  0.09084124     0.09300
C2195       C  0.70585309  0.99251738  0.09870484    -0.02200
C2196       C  0.71048096  0.99408029  0.11169124    -0.00500
C2197       C  0.72642063  0.98292819  0.11681249    -0.04100
C2198       C  0.73779029  0.97036652  0.10882962     0.02900
C2199       C  0.71075082  0.97677795  0.07738671     0.09800
C2200       C  0.68948492  0.00395472  0.09342684     0.35700
C2201       C  0.75464563  0.95942506  0.11389071     0.39100
C2202       C  0.69792994  0.96091201  0.07418639    -0.04400
C2203       C  0.69006509  0.95955044  0.06183990     0.02700
C2204       C  0.69502898  0.97407843  0.05262179    -0.04000
C2205       C  0.70870231  0.98941234  0.05569933    -0.00300
C2206       C  0.71649768  0.99075310  0.06808921    -0.02800
C2207       C  0.69237995  0.94633702  0.08375177     0.36400
C2208       C  0.71389194  0.00452975  0.04641175     0.40000
C2209       C  0.67679180  0.94319398  0.05866869     0.39200
C2210       C  0.72987357  0.00691846  0.07145950     0.36100
C2211       C  0.74445039  0.95562415  0.08767040     0.36800
C2212       C  0.69815530  0.00638208  0.11986036     0.40000
N2213       N  0.66615928  0.93017255  0.05617657    -0.38000
N2214       N  0.68800869  0.93473738  0.09140350    -0.39600
N2215       N  0.71808536  0.01663316  0.03903916    -0.37400
N2216       N  0.74048341  0.01982786  0.07420992    -0.39800
N2217       N  0.67650370  0.01311633  0.08917060    -0.39500
N2218       N  0.68825564  0.01613770  0.12636507    -0.37200
N2219       N  0.76809165  0.95070641  0.11793324    -0.38200
N2220       N  0.75358263  0.94521193  0.08112316    -0.39900
C2221       C  0.01263631  0.51280529  0.98563039    -0.04800
C2222       C  0.00120725  0.50252432  0.99474206     0.09300
C2223       C  0.98995953  0.51328463  0.00371022    -0.02200
C2224       C  0.99017837  0.53431901  0.00360811    -0.00500
C2225       C  0.00236687  0.54476351  0.99484412    -0.04100
C2226       C  0.01365110  0.53381448  0.98586151     0.02900
C2227       C  0.00166309  0.48027019  0.99517899     0.09800
C2228       C  0.97827459  0.50263819  0.01312087     0.35700
C2229       C  0.02713212  0.54393015  0.97723879     0.39100
C2230       C  0.01813447  0.47045397  0.00064593    -0.04400
C2231       C  0.01871024  0.44947110  0.00108018     0.02700
C2232       C  0.00275130  0.43819173  0.99610816    -0.04000
C2233       C  0.98647849  0.44801005  0.99035538    -0.00300
C2234       C  0.98587560  0.46903703  0.98998484    -0.02800
C2235       C  0.03453736  0.48200164  0.00578821     0.36400
C2236       C  0.97024464  0.43652317  0.98495682     0.40000
C2237       C  0.03612285  0.43947598  0.00617493     0.39200
C2238       C  0.96903401  0.47918131  0.98428384     0.36100
C2239       C  0.02341736  0.50163245  0.97603640     0.36800
C2240       C  0.97736636  0.54507624  0.01233153     0.40000
N2241       N  0.05004161  0.43146406  0.01015679    -0.38000
N2242       N  0.04764942  0.49122327  0.00983914    -0.39600
N2243       N  0.95732450  0.42739133  0.98058193    -0.37400
N2244       N  0.95558806  0.48733630  0.97979148    -0.39800
N2245       N  0.96897652  0.49412813  0.02062427    -0.39500
N2246       N  0.96710008  0.55358494  0.01929831    -0.37200
N2247       N  0.03800826  0.55185788  0.97036579    -0.38200
N2248       N  0.03188236  0.49261950  0.96837735    -0.39900
C2249       C  0.99155705  0.70531394  0.90000979    -0.04800
C2250       C  0.00543934  0.71460093  0.90813458     0.09300
C2251       C  0.01695522  0.73067460  0.90360424    -0.02200
C2252       C  0.01495575  0.73715813  0.89090475    -0.00500
C2253       C  0.00171608  0.72727497  0.88251490    -0.04100
C2254       C  0.98974605  0.71150114  0.88724514     0.02900
C2255       C  0.00835384  0.70686235  0.92135402     0.09800
C2256       C  0.03111089  0.74030205  0.91200866     0.35700
C2257       C  0.97618329  0.70088469  0.87892206     0.39100
C2258       C  0.02225748  0.69152882  0.92364673    -0.04400
C2259       C  0.02380482  0.68289823  0.93582789     0.02700
C2260       C  0.01136168  0.68949385  0.94583755    -0.04000
C2261       C  0.99822404  0.70565696  0.94367037    -0.00300
C2262       C  0.99673205  0.71426415  0.93145655    -0.02800
C2263       C  0.03484534  0.68451993  0.91338168     0.36400
C2264       C  0.98557413  0.71293882  0.95381251     0.40000
C2265       C  0.03850266  0.66744125  0.93808349     0.39200
C2266       C  0.98295629  0.73052244  0.92917226     0.36100
C2267       C  0.97943740  0.68900507  0.90475974     0.36800
C2268       C  0.02625483  0.75432299  0.88659280     0.40000
N2269       N  0.05026707  0.65514761  0.93987117    -0.38000
N2270       N  0.04489928  0.67900397  0.90518038    -0.39600
N2271       N  0.97550524  0.71883023  0.96190063    -0.37400
N2272       N  0.97200749  0.74352542  0.92731913    -0.39800
N2273       N  0.04243264  0.74789153  0.91873943    -0.39500
N2274       N  0.03523283  0.76807410  0.88320049    -0.37200
N2275       N  0.96530255  0.69237748  0.87233690    -0.38200
N2276       N  0.96977503  0.67600980  0.90856424    -0.39900
C2277       C  0.01167385  0.71640458  0.09554236    -0.04800
C2278       C  0.00029415  0.70009246  0.09118802     0.09300
C2279       C  0.98880917  0.68896081  0.09987792    -0.02200
C2280       C  0.98907883  0.69379013  0.11292562    -0.00500
C2281       C  0.00063527  0.71004390  0.11736235    -0.04100
C2282       C  0.01190287  0.72135537  0.10857129     0.02900
C2283       C  0.00184422  0.69349762  0.07763676     0.09800
C2284       C  0.97697679  0.67228364  0.09536989     0.35700
C2285       C  0.02360124  0.73826179  0.11286188     0.39100
C2286       C  0.01698899  0.68004792  0.07410562    -0.04400
C2287       C  0.01843783  0.67330606  0.06146471     0.02700
C2288       C  0.00478068  0.68006549  0.05218315    -0.04000
C2289       C  0.98981527  0.69385050  0.05568783    -0.00300
C2290       C  0.98825350  0.70039634  0.06841517    -0.02800
C2291       C  0.03094996  0.67294232  0.08359549     0.36400
C2292       C  0.97551377  0.70067957  0.04633984     0.40000
C2293       C  0.03422064  0.65956665  0.05801137     0.39200
C2294       C  0.97237804  0.71382799  0.07212859     0.36100
C2295       C  0.02327010  0.72800045  0.08656583     0.36800
C2296       C  0.97832093  0.68128010  0.12183606     0.40000
N2297       N  0.04678616  0.64856518  0.05528558    -0.38000
N2298       N  0.04202168  0.66731669  0.09121070    -0.39600
N2299       N  0.96410730  0.70613941  0.03887616    -0.37400
N2300       N  0.95963619  0.72444767  0.07512040    -0.39800
N2301       N  0.96750706  0.65902601  0.09173790    -0.39500
N2302       N  0.96982749  0.67120193  0.12893235    -0.37200
N2303       N  0.03301029  0.75170331  0.11628051    -0.38200
N2304       N  0.03248063  0.73724577  0.07937830    -0.39900
loop_ 
_geom_bond_atom_site_label_1 
_geom_bond_atom_site_label_2 
_geom_bond_distance 
_geom_bond_site_symmetry_2 
_ccdc_geom_bond_type 
N1            N2   1.324       .  A
N1            C5   1.349       .  A
N1           Cu9   2.096       .  S
N2            C3   1.343       .  A
N2           Cu8   2.072       .  S
C3            C4   1.382       .  A
C3            H6   1.082       .  S
C4            C5   1.389       .  A
C4         C2260   1.493       .  S
C5            H7   1.082       .  S
Cu8          N11   2.071       .  S
Cu9          N19   2.096   1_556  S
Cu10         N12   2.062       .  S
Cu10         N18   2.062       .  S
N11          N12   1.319   1_556  A
N11          C15   1.345       .  A
N12          C13   1.342       .  A
C13          C14   1.385   1_554  A
C13          H16   1.082       .  S
C14          C15   1.388       .  A
C14        C2225   1.491       .  S
C15          H17   1.082       .  S
N18          N19   1.323       .  A
N18          C22   1.342       .  A
N19          C20   1.350       .  A
C20          C21   1.389       .  A
C20          H23   1.082       .  S
C21          C22   1.380       .  A
C21        C2288   1.490       .  S
C22          H24   1.082       .  S
N25          N26   1.322       .  A
N25          C29   1.345       .  A
N25         Cu33   2.068       .  S
N26          C27   1.341       .  A
N26         Cu32   2.064       .  S
C27          C28   1.381       .  A
C27          H30   1.082       .  S
C28          C29   1.384       .  A
C28        C2204   1.482       .  S
C29          H31   1.082       .  S
Cu32         N35   2.064       .  S
Cu33         N43   2.068   1_554  S
Cu34         N36   2.076       .  S
Cu34         N42   2.077       .  S
N35          N36   1.321   1_554  A
N35          C39   1.344       .  A
N36          C37   1.345       .  A
C37          C38   1.386   1_556  A
C37          H40   1.082       .  S
C38          C39   1.383       .  A
C38        C2141   1.488       .  S
C39          H41   1.082       .  S
N42          N43   1.323       .  A
N42          C46   1.344       .  A
N43          C44   1.345       .  A
C44          C45   1.381       .  A
C44          H47   1.082       .  S
C45          C46   1.382       .  A
C45        C2169   1.481       .  S
C46          H48   1.082       .  S
N49          N50   1.324       .  A
N49          C53   1.353       .  A
N49         Cu57   2.109       .  S
N50          C51   1.341       .  A
N50         Cu56   2.062       .  S
C51          C52   1.378       .  A
C51          H54   1.082       .  S
C52          C53   1.391       .  A
C52        C2085   1.491       .  S
C53          H55   1.082       .  S
Cu56         N59   2.062       .  S
Cu57         N67   2.109       .  S
Cu58         N60   2.054       .  S
Cu58         N66   2.055       .  S
N59          N60   1.318       .  A
N59          C63   1.343       .  A
N60          C61   1.343       .  A
C61          C62   1.383       .  A
C61          H64   1.082       .  S
C62          C63   1.384       .  A
C62        C2064   1.484       .  S
C63          H65   1.082       .  S
N66          N67   1.324       .  A
N66          C70   1.340       .  A
N67          C68   1.352       .  A
C68          C69   1.392       .  A
C68          H71   1.082       .  S
C69          C70   1.377       .  A
C69        C2113   1.491       .  S
C70          H72   1.082       .  S
N73          N74   1.324       .  A
N73          C77   1.351       .  A
N73         Cu81   2.106       .  S
N74          C75   1.344       .  A
N74         Cu80   2.070       .  S
C75          C76   1.378       .  A
C75          H78   1.082       .  S
C76          C77   1.388       .  A
C76        C2001   1.487       .  S
C77          H79   1.082       .  S
Cu80         N83   2.069       .  S
Cu81         N91   2.106       .  S
Cu82         N84   2.071       .  S
Cu82         N90   2.072       .  S
N83          N84   1.320       .  A
N83          C87   1.344       .  A
N84          C85   1.346       .  A
C85          C86   1.385       .  A
C85          H88   1.082       .  S
C86          C87   1.384       .  A
C86        C1973   1.487       .  S
C87          H89   1.082       .  S
N90          N91   1.324       .  A
N90          C94   1.343       .  A
N91          C92   1.352       .  A
C92          C93   1.391       .  A
C92          H95   1.082       .  S
C93          C94   1.381       .  A
C93        C2029   1.494       .  S
C94          H96   1.082       .  S
N97          N98   1.324       .  A
N97         C101   1.351       .  A
N97        Cu105   2.097       .  S
N98          C99   1.344       .  A
N98        Cu104   2.080       .  S
C99         C100   1.383       .  A
C99         H102   1.082       .  S
C100        C101   1.389       .  A
C100       C1952   1.493       .  S
C101        H103   1.082       .  S
Cu104       N107   2.079       .  S
Cu105       N115   2.096       .  S
Cu106       N108   2.067       .  S
Cu106       N114   2.068       .  S
N107        N108   1.321       .  A
N107        C111   1.346       .  A
N108        C109   1.345       .  A
C109        C110   1.384       .  A
C109        H112   1.082       .  S
C110        C111   1.387       .  A
C110       C1980   1.490       .  S
C111        H113   1.082       .  S
N114        N115   1.323       .  A
N114        C118   1.343       .  A
N115        C116   1.349       .  A
C116        C117   1.389       .  A
C116        H119   1.082       .  S
C117        C118   1.383       .  A
C117       C1917   1.493       .  S
C118        H120   1.082       .  S
N121        N122   1.322       .  A
N121        C125   1.349       .  A
N121       Cu129   2.084       .  S
N122        C123   1.342       .  A
N122       Cu128   2.066       .  S
C123        C124   1.380       .  A
C123        H126   1.082       .  S
C124        C125   1.386       .  A
C124       C1889   1.484       .  S
C125        H127   1.082       .  S
Cu128       N131   2.065       .  S
Cu129       N139   2.085       .  S
Cu130       N132   2.080       .  S
Cu130       N138   2.081       .  S
N131        N132   1.321       .  A
N131        C135   1.343       .  A
N132        C133   1.347       .  A
C133        C134   1.387       .  A
C133        H136   1.082       .  S
C134        C135   1.383       .  A
C134       C2057   1.489       .  S
C135        H137   1.082       .  S
N138        N139   1.325       .  A
N138        C142   1.344       .  A
N139        C140   1.348       .  A
C140        C141   1.384       .  A
C140        H143   1.082       .  S
C141        C142   1.381       .  A
C141       C1868   1.484       .  S
C142        H144   1.082       .  S
N145        N146   1.322       .  A
N145        C149   1.349       .  A
N145       Cu153   2.094   1_545  S
N146        C147   1.342       .  A
N146       Cu152   2.060       .  S
C147        C148   1.380       .  A
C147        H150   1.082       .  S
C148        C149   1.389       .  A
C148       C1805   1.489       .  S
C149        H151   1.082       .  S
Cu152       N155   2.060   1_545  S
Cu153       N163   2.094       .  S
Cu154       N156   2.067       .  S
Cu154       N162   2.068       .  S
N155        N156   1.320       .  A
N155        C159   1.343   1_565  A
N156        C157   1.344       .  A
C157        C158   1.383       .  A
C157        H160   1.082       .  S
C158        C159   1.381   1_565  A
C158       C2176   1.480       .  S
C159        H161   1.082       .  S
N162        N163   1.324       .  A
N162        C166   1.344       .  A
N163        C164   1.348       .  A
C164        C165   1.386       .  A
C164        H167   1.082       .  S
C165        C166   1.379       .  A
C165       C1833   1.485       .  S
C166        H168   1.082       .  S
N169        C174   1.354       .  A
N169        C173   1.354       .  A
N169        H201   1.037       .  S
N170        C177   1.352       .  A
N170        C178   1.353       .  A
N171        C176   1.355       .  A
N171        C175   1.356       .  A
N171        H202   1.037       .  S
N172        C179   1.353       .  A
N172        C180   1.352       .  A
C173        C181   1.387       .  A
C173        C189   1.417       .  A
C174        C190   1.416       .  A
C174        C182   1.387       .  A
C175        C183   1.387       .  A
C175        C192   1.420       .  A
C176        C191   1.419       .  A
C176        C184   1.387       .  A
C177        C189   1.416       .  A
C177        C185   1.386       .  A
C178        C192   1.416       .  A
C178        C186   1.386       .  A
C179        C187   1.386       .  A
C179        C190   1.414       .  A
C180        C188   1.387       .  A
C180        C191   1.415       .  A
C181        C182   1.376       .  A
C181        H193   1.082       .  S
C182        H194   1.082       .  S
C183        C184   1.376       .  A
C183        H195   1.082       .  S
C184        H196   1.082       .  S
C185        C186   1.374       .  A
C185        H197   1.082       .  S
C186        H198   1.082       .  S
C187        C188   1.374       .  A
C187        H199   1.082       .  S
C188        H200   1.082       .  S
C189       C1721   1.498       .  S
C190       C1812   1.498       .  S
C191       C1777   1.498       .  S
C192       C1749   1.503       .  S
N203        C208   1.355       .  A
N203        C207   1.355       .  A
N203        H235   1.036       .  S
N204        C211   1.355       .  A
N204        C212   1.355       .  A
N205        C210   1.355       .  A
N205        C209   1.354       .  A
N205        H236   1.036       .  S
N206        C213   1.352       .  A
N206        C214   1.352       .  A
C207        C215   1.387       .  A
C207        C223   1.419       .  A
C208        C224   1.421       .  A
C208        C216   1.388       .  A
C209        C217   1.388       .  A
C209        C226   1.420       .  A
C210        C225   1.419       .  A
C210        C218   1.386       .  A
C211        C223   1.419       .  A
C211        C219   1.386       .  A
C212        C226   1.420       .  A
C212        C220   1.386       .  A
C213        C221   1.386       .  A
C213        C224   1.415       .  A
C214        C222   1.386       .  A
C214        C225   1.416       .  A
C215        C216   1.376       .  A
C215        H227   1.082       .  S
C216        H228   1.082       .  S
C217        C218   1.373       .  A
C217        H229   1.081       .  S
C218        H230   1.082       .  S
C219        C220   1.374       .  A
C219        H231   1.082       .  S
C220        H232   1.082       .  S
C221        C222   1.373       .  A
C221        H233   1.082       .  S
C222        H234   1.082       .  S
C223       C1637   1.502       .  S
C224       C1840   1.501       .  S
C225       C1693   1.504       .  S
C226       C1665   1.502       .  S
N237        N238   1.324       .  A
N237        C241   1.348       .  A
N237       Cu245   2.083   1_655  S
N238        C239   1.346       .  A
N238       Cu244   2.086       .  S
C239        C240   1.385       .  A
C239        H242   1.082       .  S
C240        C241   1.384       .  A
C240       C1644   1.489       .  S
C241        H243   1.082       .  S
Cu244       N247   2.085       .  S
Cu245       N255   2.082       .  S
Cu246       N248   2.075       .  S
Cu246       N254   2.075       .  S
N247        N248   1.322   1_655  A
N247        C251   1.347       .  A
N248        C249   1.345       .  A
C249        C250   1.386       .  A
C249        H252   1.082       .  S
C250        C251   1.389   1_455  A
C250       C2253   1.496       .  S
C251        H253   1.082       .  S
N254        N255   1.322       .  A
N254        C258   1.344       .  A
N255        C256   1.347       .  A
C256        C257   1.386       .  A
C256        H259   1.082       .  S
C257        C258   1.384       .  A
C257       C1616   1.490       .  S
C258        H260   1.082       .  S
N261        C266   1.354       .  A
N261        C265   1.353       .  A
N261        H293   1.032       .  S
N262        C269   1.353       .  A
N262        C270   1.353       .  A
N263        C268   1.354       .  A
N263        C267   1.356       .  A
N263        H294   1.032       .  S
N264        C271   1.353       .  A
N264        C272   1.351       .  A
C265        C273   1.388       .  A
C265        C281   1.417       .  A
C266        C282   1.417       .  A
C266        C274   1.387       .  A
C267        C275   1.387       .  A
C267        C284   1.421       .  A
C268        C283   1.421       .  A
C268        C276   1.388       .  A
C269        C281   1.417       .  A
C269        C277   1.386       .  A
C270        C284   1.417       .  A
C270        C278   1.386       .  A
C271        C279   1.385       .  A
C271        C282   1.415       .  A
C272        C280   1.388       .  A
C272        C283   1.417       .  A
C273        C274   1.374       .  A
C273        H285   1.082       .  S
C274        H286   1.082       .  S
C275        C276   1.377       .  A
C275        H287   1.082       .  S
C276        H288   1.082       .  S
C277        C278   1.373       .  A
C277        H289   1.082       .  S
C278        H290   1.082       .  S
C279        C280   1.372       .  A
C279        H291   1.082       .  S
C280        H292   1.082       .  S
C281       C1553   1.495       .  S
C282       C1581   1.498       .  S
C283       C1609   1.496       .  S
C284       C1525   1.502       .  S
N295        N296   1.323       .  A
N295        C299   1.349       .  A
N295       Cu303   2.094   1_655  S
N296        C297   1.345       .  A
N296       Cu302   2.078       .  S
C297        C298   1.384       .  A
C297        H300   1.082       .  S
C298        C299   1.388       .  A
C298       C1728   1.494       .  S
C299        H301   1.082       .  S
Cu302       N305   2.078       .  S
Cu303       N313   2.094       .  S
Cu304       N306   2.081       .  S
Cu304       N312   2.079       .  S
N305        N306   1.322   1_655  A
N305        C309   1.346       .  A
N306        C307   1.347       .  A
C307        C308   1.384       .  A
C307        H310   1.082       .  S
C308        C309   1.383   1_455  A
C308       C1469   1.486       .  S
C309        H311   1.082       .  S
N312        N313   1.320       .  A
N312        C316   1.344       .  A
N313        C314   1.348       .  A
C314        C315   1.396       .  A
C314        H317   1.080       .  S
C315        C316   1.392       .  A
C315       C1497   1.513       .  S
C316        H318   1.080       .  S
N319        C324   1.354       .  A
N319        C323   1.356       .  A
N319        H351   1.037       .  S
N320        C327   1.353       .  A
N320        C328   1.351       .  A
N321        C326   1.355       .  A
N321        C325   1.353       .  A
N321        H352   1.039       .  S
N322        C329   1.352       .  A
N322        C330   1.354       .  A
C323        C331   1.387       .  A
C323        C339   1.419       .  A
C324        C340   1.419       .  A
C324        C332   1.388       .  A
C325        C333   1.387       .  A
C325        C342   1.415       .  A
C326        C341   1.418       .  A
C326        C334   1.387       .  A
C327        C339   1.415       .  A
C327        C335   1.386       .  A
C328        C342   1.414       .  A
C328        C336   1.386       .  A
C329        C337   1.386       .  A
C329        C340   1.415       .  A
C330        C338   1.386       .  A
C330        C341   1.418       .  A
C331        C332   1.376       .  A
C331        H343   1.082       .  S
C332        H344   1.082       .  S
C333        C334   1.376       .  A
C333        H345   1.082       .  S
C334        H346   1.082       .  S
C335        C336   1.374       .  A
C335        H347   1.082       .  S
C336        H348   1.082       .  S
C337        C338   1.374       .  A
C337        H349   1.082       .  S
C338        H350   1.082       .  S
C339       C1441   1.502       .  S
C340       C1413   1.497       .  S
C341       C1504   1.509       .  S
C342       C1392   1.495       .  S
N353        N354   1.323       .  A
N353        C357   1.349       .  A
N353       Cu361   2.087       .  S
N354        C355   1.344       .  A
N354       Cu360   2.077       .  S
C355        C356   1.383       .  A
C355        H358   1.082       .  S
C356        C357   1.387       .  A
C356       C1532   1.490       .  S
C357        H359   1.082       .  S
Cu360       N363   2.076       .  S
Cu361       N371   2.087   1_565  S
Cu362       N364   2.074       .  S
Cu362       N370   2.075       .  S
N363        N364   1.322   1_565  A
N363        C367   1.346       .  A
N364        C365   1.346       .  A
C365        C366   1.381   1_545  A
C365        H368   1.082       .  S
C366        C367   1.382       .  A
C366       C1357   1.481       .  S
C367        H369   1.082       .  S
N370        N371   1.323       .  A
N370        C374   1.345       .  A
N371        C372   1.347       .  A
C372        C373   1.386       .  A
C372        H375   1.082       .  S
C373        C374   1.384       .  A
C373       C1385   1.491       .  S
C374        H376   1.082       .  S
N377        N378   1.325       .  A
N377        C381   1.347       .  A
N377       Cu385   2.081       .  S
N378        C379   1.348       .  A
N378       Cu384   2.091       .  S
C379        C380   1.383       .  A
C379        H382   1.082       .  S
C380        C381   1.381       .  A
C380       C1588   1.485       .  S
C381        H383   1.082       .  S
Cu384       N387   2.090       .  S
Cu385       N395   2.080       .  S
Cu386       N388   2.073       .  S
Cu386       N394   2.073       .  S
N387        N388   1.323       .  A
N387        C391   1.349       .  A
N388        C389   1.345       .  A
C389        C390   1.381       .  A
C389        H392   1.082       .  S
C390        C391   1.387       .  A
C390       C1861   1.488       .  S
C391        H393   1.082       .  S
N394        N395   1.322       .  A
N394        C398   1.344       .  A
N395        C396   1.348       .  A
C396        C397   1.385       .  A
C396        H399   1.082       .  S
C397        C398   1.383       .  A
C397       C1420   1.488       .  S
C398        H400   1.082       .  S
N401        N402   1.324       .  A
N401        C405   1.351       .  A
N401       Cu409   2.103       .  S
N402        C403   1.342       .  A
N402       Cu408   2.064       .  S
C403        C404   1.379       .  A
C403        H406   1.082       .  S
C404        C405   1.389       .  A
C404       C1784   1.490       .  S
C405        H407   1.082       .  S
Cu408       N411   2.063       .  S
Cu409       N419   2.103       .  S
Cu410       N412   2.078       .  S
Cu410       N418   2.079       .  S
N411        N412   1.320       .  A
N411        C415   1.345       .  A
N412        C413   1.345       .  A
C413        C414   1.388       .  A
C413        H416   1.082       .  S
C414        C415   1.384       .  A
C414       C1924   1.489       .  S
C415        H417   1.082       .  S
N418        N419   1.325       .  A
N418        C422   1.345       .  A
N419        C420   1.351       .  A
C420        C421   1.389       .  A
C420        H423   1.082       .  S
C421        C422   1.382       .  A
C421       C1448   1.493       .  S
C422        H424   1.082       .  S
N425        N426   1.325       .  A
N425        C429   1.348       .  A
N425       Cu433   2.088       .  S
N426        C427   1.346       .  A
N426       Cu432   2.081       .  S
C427        C428   1.381       .  A
C427        H430   1.082       .  S
C428        C429   1.383       .  A
C428       C1560   1.484       .  S
C429        H431   1.082       .  S
Cu432       N435   2.081       .  S
Cu433       N443   2.088       .  S
Cu434       N436   2.073       .  S
Cu434       N442   2.073       .  S
N435        N436   1.322       .  A
N435        C439   1.347       .  A
N436        C437   1.346       .  A
C437        C438   1.382       .  A
C437        H440   1.082       .  S
C438        C439   1.384       .  A
C438       C2008   1.484       .  S
C439        H441   1.082       .  S
N442        N443   1.323       .  A
N442        C446   1.344       .  A
N443        C444   1.349       .  A
C444        C445   1.387       .  A
C444        H447   1.082       .  S
C445        C446   1.382       .  A
C445       C1700   1.490       .  S
C446        H448   1.082       .  S
N449        N450   1.323       .  A
N449        C453   1.351       .  A
N449       Cu457   2.100       .  S
N450        C451   1.343       .  A
N450       Cu456   2.071       .  S
C451        C452   1.382       .  A
C451        H454   1.082       .  S
C452        C453   1.390       .  A
C452       C1672   1.493       .  S
C453        H455   1.082       .  S
Cu456       N459   2.070       .  S
Cu457       N467   2.101       .  S
Cu458       N460   2.080       .  S
Cu458       N466   2.080       .  S
N459        N460   1.321       .  A
N459        C463   1.344       .  A
N460        C461   1.347       .  A
C461        C462   1.388       .  A
C461        H464   1.082       .  S
C462        C463   1.386       .  A
C462       C2092   1.494       .  S
C463        H465   1.082       .  S
N466        N467   1.325       .  A
N466        C470   1.345       .  A
N467        C468   1.351       .  A
C468        C469   1.386       .  A
C468        H471   1.082       .  S
C469        C470   1.380       .  A
C469       C1756   1.488       .  S
C470        H472   1.082       .  S
N473        N474   1.323       .  A
N473        C477   1.348       .  A
N473       Cu481   2.082       .  S
N474        C475   1.343       .  A
N474       Cu480   2.071       .  S
C475        C476   1.380       .  A
C475        H478   1.082       .  S
C476        C477   1.384       .  A
C476       C1336   1.483       .  S
C477        H479   1.082       .  S
Cu480       N483   2.071       .  S
Cu481       N491   2.082   1_554  S
Cu482       N484   2.071       .  S
Cu482       N490   2.072       .  S
N483        N484   1.321   1_554  A
N483        C487   1.344       .  A
N484        C485   1.346       .  A
C485        C486   1.385   1_556  A
C485        H488   1.082       .  S
C486        C487   1.384       .  A
C486       C2148   1.487       .  S
C487        H489   1.082       .  S
N490        N491   1.324       .  A
N490        C494   1.343       .  A
N491        C492   1.348       .  A
C492        C493   1.383       .  A
C492        H495   1.082       .  S
C493        C494   1.378       .  A
C493       C1364   1.479       .  S
C494        H496   1.082       .  S
N497        N498   1.322       .  A
N497        C501   1.351       .  A
N497       Cu505   2.099   1_556  S
N498        C499   1.341       .  A
N498       Cu504   2.061       .  S
C499        C500   1.382       .  A
C499        H502   1.082       .  S
C500        C501   1.392       .  A
C500       C1476   1.496       .  S
C501        H503   1.082       .  S
Cu504       N507   2.060       .  S
Cu505       N515   2.100       .  S
Cu506       N508   2.065       .  S
Cu506       N514   2.066       .  S
N507        N508   1.320   1_556  A
N507        C511   1.344       .  A
N508        C509   1.343       .  A
C509        C510   1.383   1_554  A
C509        H512   1.082       .  S
C510        C511   1.381       .  A
C510       C2232   1.480       .  S
C511        H513   1.082       .  S
N514        N515   1.323       .  A
N514        C518   1.343       .  A
N515        C516   1.349       .  A
C516        C517   1.391       .  A
C516        H519   1.082       .  S
C517        C518   1.382       .  A
C517       C1301   1.495       .  S
C518        H520   1.082       .  S
N521        N522   1.324       .  A
N521        C525   1.350       .  A
N521       Cu529   2.106   1_655  S
N522        C523   1.345       .  A
N522       Cu528   2.071       .  S
C523        C524   1.382       .  A
C523        H526   1.082       .  S
C524        C525   1.390       .  A
C524       C1273   1.493       .  S
C525        H527   1.082       .  S
Cu528       N531   2.071       .  S
Cu529       N539   2.106       .  S
Cu530       N532   2.079       .  S
Cu530       N538   2.079       .  S
N531        N532   1.321   1_655  A
N531        C535   1.345       .  A
N532        C533   1.346       .  A
C533        C534   1.387       .  A
C533        H536   1.082       .  S
C534        C535   1.385   1_455  A
C534       C2281   1.492       .  S
C535        H537   1.082       .  S
N538        N539   1.325       .  A
N538        C542   1.345       .  A
N539        C540   1.352       .  A
C540        C541   1.389       .  A
C540        H543   1.082       .  S
C541        C542   1.381       .  A
C541       C1252   1.492       .  S
C542        H544   1.082       .  S
N545        C550   1.355       .  A
N545        C549   1.355       .  A
N545        H577   1.034       .  S
N546        C553   1.354       .  A
N546        C554   1.354       .  A
N547        C552   1.355       .  A
N547        C551   1.354       .  A
N547        H578   1.037       .  S
N548        C555   1.351       .  A
N548        C556   1.352       .  A
C549        C557   1.387       .  A
C549        C565   1.419       .  A
C550        C566   1.420       .  A
C550        C558   1.388       .  A
C551        C559   1.387       .  A
C551        C568   1.419       .  A
C552        C567   1.418       .  A
C552        C560   1.387       .  A
C553        C565   1.418       .  A
C553        C561   1.386       .  A
C554        C568   1.418       .  A
C554        C562   1.387       .  A
C555        C563   1.386       .  A
C555        C566   1.414       .  A
C556        C564   1.386       .  A
C556        C567   1.414       .  A
C557        C558   1.376       .  A
C557        H569   1.082       .  S
C558        H570   1.082       .  S
C559        C560   1.377       .  A
C559        H571   1.082       .  S
C560        H572   1.082       .  S
C561        C562   1.373       .  A
C561        H573   1.082       .  S
C562        H574   1.082       .  S
C563        C564   1.372       .  A
C563        H575   1.082       .  S
C564        H576   1.082       .  S
C565       C1245   1.501       .  S
C566       C1161   1.496       .  S
C567       C1189   1.498       .  S
C568       C1217   1.503       .  S
N579        C584   1.357       .  A
N579        C583   1.356       .  A
N579        H611   1.034       .  S
N580        C587   1.353       .  A
N580        C588   1.353       .  A
N581        C586   1.357       .  A
N581        C585   1.358       .  A
N581        H612   1.037       .  S
N582        C589   1.352       .  A
N582        C590   1.351       .  A
C583        C591   1.388       .  A
C583        C599   1.424       .  A
C584        C600   1.422       .  A
C584        C592   1.386       .  A
C585        C593   1.387       .  A
C585        C602   1.422       .  A
C586        C601   1.421       .  A
C586        C594   1.387       .  A
C587        C599   1.421       .  A
C587        C595   1.387       .  A
C588        C602   1.419       .  A
C588        C596   1.386       .  A
C589        C597   1.387       .  A
C589        C600   1.417       .  A
C590        C598   1.387       .  A
C590        C601   1.416       .  A
C591        C592   1.375       .  A
C591        H603   1.082       .  S
C592        H604   1.082       .  S
C593        C594   1.372       .  A
C593        H605   1.082       .  S
C594        H606   1.082       .  S
C595        C596   1.373       .  A
C595        H607   1.082       .  S
C596        H608   1.082       .  S
C597        C598   1.370       .  A
C597        H609   1.082       .  S
C598        H610   1.082       .  S
C599       C1133   1.503       .  S
C600       C1105   1.502       .  S
C601       C1077   1.499       .  S
C602       C1280   1.505       .  S
N613        N614   1.323       .  A
N613        C617   1.349       .  A
N613       Cu621   2.094       .  S
N614        C615   1.341       .  A
N614       Cu620   2.052       .  S
C615        C616   1.377       .  A
C615        H618   1.082       .  S
C616        C617   1.387       .  A
C616       C1084   1.483       .  S
C617        H619   1.082       .  S
Cu620       N623   2.052       .  S
Cu621       N631   2.094   1_565  S
Cu622       N624   2.062   1_545  S
Cu622       N630   2.064       .  S
N623        N624   1.319       .  A
N623        C627   1.342       .  A
N624        C625   1.343   1_565  A
C625        C626   1.383   1_545  A
C625        H628   1.082       .  S
C626        C627   1.381       .  A
C626       C2197   1.479       .  S
C627        H629   1.082       .  S
N630        N631   1.323       .  A
N630        C634   1.342       .  A
N631        C632   1.349       .  A
C632        C633   1.388       .  A
C632        H635   1.082       .  S
C633        C634   1.380       .  A
C633       C1049   1.488       .  S
C634        H636   1.082       .  S
N637        C642   1.354       .  A
N637        C641   1.354       .  A
N637        H669   1.036       .  S
N638        C645   1.353       .  A
N638        C646   1.354       .  A
N639        C644   1.355       .  A
N639        C643   1.354       .  A
N639        H670   1.036       .  S
N640        C647   1.353       .  A
N640        C648   1.353       .  A
C641        C649   1.387       .  A
C641        C657   1.418       .  A
C642        C658   1.418       .  A
C642        C650   1.387       .  A
C643        C651   1.387       .  A
C643        C660   1.419       .  A
C644        C659   1.419       .  A
C644        C652   1.387       .  A
C645        C657   1.417       .  A
C645        C653   1.386       .  A
C646        C660   1.418       .  A
C646        C654   1.386       .  A
C647        C655   1.386       .  A
C647        C658   1.417       .  A
C648        C656   1.387       .  A
C648        C659   1.417       .  A
C649        C650   1.376       .  A
C649        H661   1.082       .  S
C650        H662   1.082       .  S
C651        C652   1.377       .  A
C651        H663   1.082       .  S
C652        H664   1.082       .  S
C653        C654   1.373       .  A
C653        H665   1.082       .  S
C654        H666   1.082       .  S
C655        C656   1.372       .  A
C655        H667   1.082       .  S
C656        H668   1.082       .  S
C657       C1021   1.499       .  S
C658       C1056   1.500       .  S
C659        C965   1.503       .  S
C660        C993   1.502       .  S
N671        N672   1.324       .  A
N671        C675   1.347       .  A
N671       Cu679   2.082       .  S
N672        C673   1.344       .  A
N672       Cu678   2.073       .  S
C673        C674   1.380       .  A
C673        H676   1.082       .  S
C674        C675   1.383       .  A
C674       C1168   1.480       .  S
C675        H677   1.082       .  S
Cu678       N681   2.073       .  S
Cu679       N689   2.082   1_565  S
Cu680       N682   2.072       .  S
Cu680       N688   2.072       .  S
N681        N682   1.322   1_565  A
N681        C685   1.346       .  A
N682        C683   1.345       .  A
C683        C684   1.382   1_545  A
C683        H686   1.082       .  S
C684        C685   1.383       .  A
C684       C1329   1.482       .  S
C685        H687   1.082       .  S
N688        N689   1.323       .  A
N688        C692   1.344       .  A
N689        C690   1.347       .  A
C690        C691   1.383       .  A
C690        H693   1.082       .  S
C691        C692   1.380       .  A
C691        C937   1.481       .  S
C692        H694   1.082       .  S
N695        N696   1.323       .  A
N695        C699   1.350       .  A
N695       Cu703   2.103   1_655  S
N696        C697   1.345       .  A
N696       Cu702   2.076       .  S
C697        C698   1.385       .  A
C697        H700   1.082       .  S
C698        C699   1.392       .  A
C698        C972   1.501       .  S
C699        H701   1.082       .  S
Cu702       N705   2.075       .  S
Cu703       N713   2.104       .  S
Cu704       N706   2.082       .  S
Cu704       N712   2.083       .  S
N705        N706   1.321   1_655  A
N705        C709   1.345       .  A
N706        C707   1.347       .  A
C707        C708   1.389       .  A
C707        H710   1.082       .  S
C708        C709   1.387   1_455  A
C708       C1308   1.497       .  S
C709        H711   1.082       .  S
N712        N713   1.324       .  A
N712        C716   1.346       .  A
N713        C714   1.351       .  A
C714        C715   1.389       .  A
C714        H717   1.082       .  S
C715        C716   1.384       .  A
C715        C916   1.496       .  S
C716        H718   1.082       .  S
N719        C724   1.356       .  A
N719        C723   1.352       .  A
N719        H751   1.038       .  S
N720        C727   1.351       .  A
N720        C728   1.353       .  A
N721        C726   1.352       .  A
N721        C725   1.357       .  A
N721        H752   1.037       .  S
N722        C729   1.354       .  A
N722        C730   1.351       .  A
C723        C731   1.387       .  A
C723        C739   1.417       .  A
C724        C740   1.418       .  A
C724        C732   1.387       .  A
C725        C733   1.386       .  A
C725        C742   1.419       .  A
C726        C741   1.418       .  A
C726        C734   1.388       .  A
C727        C739   1.416       .  A
C727        C735   1.387       .  A
C728        C742   1.414       .  A
C728        C736   1.385       .  A
C729        C737   1.385       .  A
C729        C740   1.415       .  A
C730        C738   1.388       .  A
C730        C741   1.417       .  A
C731        C732   1.377       .  A
C731        H743   1.082       .  S
C732        H744   1.082       .  S
C733        C734   1.378       .  A
C733        H745   1.082       .  S
C734        H746   1.082       .  S
C735        C736   1.374       .  A
C735        H747   1.082       .  S
C736        H748   1.082       .  S
C737        C738   1.374       .  A
C737        H749   1.082       .  S
C738        H750   1.082       .  S
C739        C944   1.497       .  S
C740        C909   1.507       .  S
C741        C881   1.494       .  S
C742        C860   1.504       .  S
N753        N754   1.324       .  A
N753        C757   1.351       .  A
N753       Cu761   2.096       .  S
N754        C755   1.344       .  A
N754       Cu760   2.077       .  S
C755        C756   1.381       .  A
C755        H758   1.082       .  S
C756        C757   1.387       .  A
C756       C1028   1.488       .  S
C757        H759   1.082       .  S
Cu760       N763   2.077       .  S
Cu761       N771   2.096       .  S
Cu762       N764   2.090       .  S
Cu762       N770   2.091       .  S
N763        N764   1.322       .  A
N763        C767   1.347       .  A
N764        C765   1.348       .  A
C765        C766   1.388       .  A
C765        H768   1.082       .  S
C766        C767   1.386       .  A
C766       C1945   1.496       .  S
C767        H769   1.082       .  S
N770        N771   1.324       .  A
N770        C774   1.347       .  A
N771        C772   1.350       .  A
C772        C773   1.388       .  A
C772        H775   1.082       .  S
C773        C774   1.385       .  A
C773        C853   1.497       .  S
C774        H776   1.082       .  S
N777        N778   1.323       .  A
N777        C781   1.349       .  A
N777       Cu785   2.087       .  S
N778        C779   1.342       .  A
N778       Cu784   2.068       .  S
C779        C780   1.381       .  A
C779        H782   1.082       .  S
C780        C781   1.387       .  A
C780        C888   1.487       .  S
C781        H783   1.082       .  S
Cu784       N787   2.067       .  S
Cu785       N795   2.087       .  S
Cu786       N788   2.081       .  S
Cu786       N794   2.082       .  S
N787        N788   1.321       .  A
N787        C791   1.345       .  A
N788        C789   1.346       .  A
C789        C790   1.387       .  A
C789        H792   1.082       .  S
C790        C791   1.384       .  A
C790       C1896   1.491       .  S
C791        H793   1.082       .  S
N794        N795   1.323       .  A
N794        C798   1.345       .  A
N795        C796   1.348       .  A
C796        C797   1.388       .  A
C796        H799   1.082       .  S
C797        C798   1.386       .  A
C797       C1224   1.496       .  S
C798        H800   1.082       .  S
N801        N802   1.324       .  A
N801        C805   1.350       .  A
N801       Cu809   2.100       .  S
N802        C803   1.346       .  A
N802       Cu808   2.081       .  S
C803        C804   1.383       .  A
C803        H806   1.082       .  S
C804        C805   1.388       .  A
C804       C1140   1.492       .  S
C805        H807   1.082       .  S
Cu808       N811   2.080       .  S
Cu809       N819   2.100       .  S
Cu810       N812   2.077       .  S
Cu810       N818   2.077       .  S
N811        N812   1.321       .  A
N811        C815   1.347       .  A
N812        C813   1.345       .  A
C813        C814   1.386       .  A
C813        H816   1.082       .  S
C814        C815   1.387       .  A
C814       C2120   1.493       .  S
C815        H817   1.082       .  S
N818        N819   1.324       .  A
N818        C822   1.346       .  A
N819        C820   1.351       .  A
C820        C821   1.387       .  A
C820        H823   1.082       .  S
C821        C822   1.381       .  A
C821       C1000   1.489       .  S
C822        H824   1.082       .  S
N825        N826   1.323       .  A
N825        C829   1.348       .  A
N825       Cu833   2.086       .  S
N826        C827   1.345       .  A
N826       Cu832   2.075       .  S
C827        C828   1.383       .  A
C827        H830   1.082       .  S
C828        C829   1.386       .  A
C828       C1196   1.490       .  S
C829        H831   1.082       .  S
Cu832       N835   2.075       .  S
Cu833       N843   2.087       .  S
Cu834       N836   2.089       .  S
Cu834       N842   2.089       .  S
N835        N836   1.321       .  A
N835        C839   1.346       .  A
N836        C837   1.348       .  A
C837        C838   1.389       .  A
C837        H840   1.082       .  S
C838        C839   1.386       .  A
C838       C2036   1.497       .  S
C839        H841   1.082       .  S
N842        N843   1.324       .  A
N842        C846   1.346       .  A
N843        C844   1.349       .  A
C844        C845   1.385       .  A
C844        H847   1.082       .  S
C845        C846   1.384       .  A
C845       C1112   1.490       .  S
C846        H848   1.082       .  S
C849        C850   1.412       .  A
C849        C854   1.416       .  A
C849        C867   1.450       .  S
C850        C851   1.411       .  A
C850        C855   1.505       .  S
C851        C852   1.414       .  A
C851        C856   1.450       .  S
C852        C853   1.416       .  A
C852        C868   1.450       .  S
C853        C854   1.416       .  A
C854        C857   1.450       .  S
C855        C858   1.412       .  A
C855        C862   1.413       .  A
C856        N873   1.157       .  T
C857        N875   1.157       .  T
C858        C859   1.415       .  A
C858        C863   1.450       .  S
C859        C860   1.414       .  A
C859        C865   1.450       .  S
C860        C861   1.412       .  A
C861        C862   1.414       .  A
C861        C864   1.449       .  S
C862        C866   1.450       .  S
C863        N870   1.157       .  T
C864        N871   1.157       .  T
C865        N869   1.157       .  T
C866        N872   1.157       .  T
C867        N876   1.157       .  T
C868        N874   1.157       .  T
C877        C878   1.412       .  A
C877        C882   1.409       .  A
C877        C895   1.450       .  S
C878        C879   1.412       .  A
C878        C883   1.496       .  S
C879        C880   1.411       .  A
C879        C884   1.450       .  S
C880        C881   1.412       .  A
C880        C896   1.450       .  S
C881        C882   1.411       .  A
C882        C885   1.450       .  S
C883        C886   1.410       .  A
C883        C890   1.412       .  A
C884        N901   1.157       .  T
C885        N903   1.157       .  T
C886        C887   1.409       .  A
C886        C891   1.451       .  S
C887        C888   1.414       .  A
C887        C893   1.451       .  S
C888        C889   1.414       .  A
C889        C890   1.413       .  A
C889        C892   1.450       .  S
C890        C894   1.450       .  S
C891        N898   1.157       .  T
C892        N899   1.157       .  T
C893        N897   1.157       .  T
C894        N900   1.157       .  T
C895        N904   1.157       .  T
C896        N902   1.157       .  T
C905        C906   1.414       .  A
C905        C910   1.417       .  A
C905        C923   1.450       .  S
C906        C907   1.413       .  A
C906        C911   1.509       .  S
C907        C908   1.413       .  A
C907        C912   1.450       .  S
C908        C909   1.413       .  A
C908        C924   1.450       .  S
C909        C910   1.415       .  A
C910        C913   1.450       .  S
C911        C914   1.413       .  A
C911        C918   1.414       .  A
C912        N929   1.157       .  T
C913        N931   1.157       .  T
C914        C915   1.414       .  A
C914        C919   1.450       .  S
C915        C916   1.415       .  A
C915        C921   1.451       .  S
C916        C917   1.414       .  A
C917        C918   1.416       .  A
C917        C920   1.450       .  S
C918        C922   1.450       .  S
C919        N926   1.157       .  T
C920        N927   1.157       .  T
C921        N925   1.157       .  T
C922        N928   1.157       .  T
C923        N932   1.157       .  T
C924        N930   1.157       .  T
C933        C934   1.411       .  A
C933        C938   1.410       .  A
C933        C951   1.450       .  S
C934        C935   1.411       .  A
C934        C939   1.494       .  S
C935        C936   1.411       .  A
C935        C940   1.450       .  S
C936        C937   1.412       .  A
C936        C952   1.450       .  S
C937        C938   1.411       .  A
C938        C941   1.450       .  S
C939        C942   1.410       .  A
C939        C946   1.411       .  A
C940        N957   1.157       .  T
C941        N959   1.157       .  T
C942        C943   1.410       .  A
C942        C947   1.450       .  S
C943        C944   1.413       .  A
C943        C949   1.450       .  S
C944        C945   1.414       .  A
C945        C946   1.410       .  A
C945        C948   1.451       .  S
C946        C950   1.450       .  S
C947        N954   1.157       .  T
C948        N955   1.157       .  T
C949        N953   1.157       .  T
C950        N956   1.157       .  T
C951        N960   1.157       .  T
C952        N958   1.157       .  T
C961        C962   1.412       .  A
C961        C966   1.413       .  A
C961        C979   1.450       .  S
C962        C963   1.412       .  A
C962        C967   1.503       .  S
C963        C964   1.413       .  A
C963        C968   1.450       .  S
C964        C965   1.413       .  A
C964        C980   1.450       .  S
C965        C966   1.413       .  A
C966        C969   1.450       .  S
C967        C970   1.410       .  A
C967        C974   1.411       .  A
C968        N985   1.157       .  T
C969        N987   1.157       .  T
C970        C971   1.414       .  A
C970        C975   1.451       .  S
C971        C972   1.419       .  A
C971        C977   1.451       .  S
C972        C973   1.418       .  A
C973        C974   1.415       .  A
C973        C976   1.450       .  S
C974        C978   1.450       .  S
C975        N982   1.157       .  T
C976        N983   1.157       .  T
C977        N981   1.157       .  T
C978        N984   1.157       .  T
C979        N988   1.157       .  T
C980        N986   1.157       .  T
C989        C990   1.413       .  A
C989        C994   1.414       .  A
C989       C1007   1.450       .  S
C990        C991   1.412       .  A
C990        C995   1.503       .  S
C991        C992   1.413       .  A
C991        C996   1.449       .  S
C992        C993   1.413       .  A
C992       C1008   1.450       .  S
C993        C994   1.412       .  A
C994        C997   1.450       .  S
C995        C998   1.412       .  A
C995       C1002   1.412       .  A
C996       N1013   1.157       .  T
C997       N1015   1.157       .  T
C998        C999   1.414       .  A
C998       C1003   1.450       .  S
C999       C1000   1.412       .  A
C999       C1005   1.450       .  S
C1000      C1001   1.413       .  A
C1001      C1002   1.414       .  A
C1001      C1004   1.450       .  S
C1002      C1006   1.450       .  S
C1003      N1010   1.157       .  T
C1004      N1011   1.157       .  T
C1005      N1009   1.157       .  T
C1006      N1012   1.157       .  T
C1007      N1016   1.157       .  T
C1008      N1014   1.157       .  T
C1017      C1018   1.413       .  A
C1017      C1022   1.411       .  A
C1017      C1035   1.450       .  S
C1018      C1019   1.413       .  A
C1018      C1023   1.502       .  S
C1019      C1020   1.413       .  A
C1019      C1024   1.450       .  S
C1020      C1021   1.412       .  A
C1020      C1036   1.450       .  S
C1021      C1022   1.411       .  A
C1022      C1025   1.450       .  S
C1023      C1026   1.412       .  A
C1023      C1030   1.413       .  A
C1024      N1041   1.157       .  T
C1025      N1043   1.157       .  T
C1026      C1027   1.412       .  A
C1026      C1031   1.451       .  S
C1027      C1028   1.413       .  A
C1027      C1033   1.450       .  S
C1028      C1029   1.413       .  A
C1029      C1030   1.414       .  A
C1029      C1032   1.450       .  S
C1030      C1034   1.450       .  S
C1031      N1038   1.157       .  T
C1032      N1039   1.157       .  T
C1033      N1037   1.157       .  T
C1034      N1040   1.157       .  T
C1035      N1044   1.157       .  T
C1036      N1042   1.157       .  T
C1045      C1046   1.411       .  A
C1045      C1050   1.412       .  A
C1045      C1063   1.450       .  S
C1046      C1047   1.411       .  A
C1046      C1051   1.498       .  S
C1047      C1048   1.411       .  A
C1047      C1052   1.451       .  S
C1048      C1049   1.415       .  A
C1048      C1064   1.451       .  S
C1049      C1050   1.414       .  A
C1050      C1053   1.450       .  S
C1051      C1054   1.411       .  A
C1051      C1058   1.412       .  A
C1052      N1069   1.157       .  T
C1053      N1071   1.157       .  T
C1054      C1055   1.410       .  A
C1054      C1059   1.451       .  S
C1055      C1056   1.413       .  A
C1055      C1061   1.450       .  S
C1056      C1057   1.413       .  A
C1057      C1058   1.412       .  A
C1057      C1060   1.450       .  S
C1058      C1062   1.450       .  S
C1059      N1066   1.157       .  T
C1060      N1067   1.157       .  T
C1061      N1065   1.157       .  T
C1062      N1068   1.157       .  T
C1063      N1072   1.157       .  T
C1064      N1070   1.157       .  T
C1073      C1074   1.411       .  A
C1073      C1078   1.411       .  A
C1073      C1091   1.450       .  S
C1074      C1075   1.410       .  A
C1074      C1079   1.493       .  S
C1075      C1076   1.409       .  A
C1075      C1080   1.450       .  S
C1076      C1077   1.414       .  A
C1076      C1092   1.451       .  S
C1077      C1078   1.413       .  A
C1078      C1081   1.450       .  S
C1079      C1082   1.410       .  A
C1079      C1086   1.411       .  A
C1080      N1097   1.157       .  T
C1081      N1099   1.157       .  T
C1082      C1083   1.409       .  A
C1082      C1087   1.451       .  S
C1083      C1084   1.414       .  A
C1083      C1089   1.451       .  S
C1084      C1085   1.412       .  A
C1085      C1086   1.411       .  A
C1085      C1088   1.451       .  S
C1086      C1090   1.450       .  S
C1087      N1094   1.157       .  T
C1088      N1095   1.157       .  T
C1089      N1093   1.157       .  T
C1090      N1096   1.157       .  T
C1091      N1100   1.157       .  T
C1092      N1098   1.157       .  T
C1101      C1102   1.412       .  A
C1101      C1106   1.411       .  A
C1101      C1119   1.450       .  S
C1102      C1103   1.412       .  A
C1102      C1107   1.501       .  S
C1103      C1104   1.414       .  A
C1103      C1108   1.450       .  S
C1104      C1105   1.413       .  A
C1104      C1120   1.450       .  S
C1105      C1106   1.412       .  A
C1106      C1109   1.450       .  S
C1107      C1110   1.412       .  A
C1107      C1114   1.411       .  A
C1108      N1125   1.157       .  T
C1109      N1127   1.157       .  T
C1110      C1111   1.415       .  A
C1110      C1115   1.450       .  S
C1111      C1112   1.414       .  A
C1111      C1117   1.450       .  S
C1112      C1113   1.413       .  A
C1113      C1114   1.411       .  A
C1113      C1116   1.450       .  S
C1114      C1118   1.450       .  S
C1115      N1122   1.157       .  T
C1116      N1123   1.157       .  T
C1117      N1121   1.157       .  T
C1118      N1124   1.157       .  T
C1119      N1128   1.157       .  T
C1120      N1126   1.157       .  T
C1129      C1130   1.412       .  A
C1129      C1134   1.413       .  A
C1129      C1147   1.449       .  S
C1130      C1131   1.412       .  A
C1130      C1135   1.503       .  S
C1131      C1132   1.413       .  A
C1131      C1136   1.450       .  S
C1132      C1133   1.413       .  A
C1132      C1148   1.450       .  S
C1133      C1134   1.413       .  A
C1134      C1137   1.450       .  S
C1135      C1138   1.412       .  A
C1135      C1142   1.411       .  A
C1136      N1153   1.157       .  T
C1137      N1155   1.157       .  T
C1138      C1139   1.414       .  A
C1138      C1143   1.450       .  S
C1139      C1140   1.414       .  A
C1139      C1145   1.450       .  S
C1140      C1141   1.415       .  A
C1141      C1142   1.414       .  A
C1141      C1144   1.450       .  S
C1142      C1146   1.450       .  S
C1143      N1150   1.157       .  T
C1144      N1151   1.157       .  T
C1145      N1149   1.157       .  T
C1146      N1152   1.157       .  T
C1147      N1156   1.157       .  T
C1148      N1154   1.157       .  T
C1157      C1158   1.411       .  A
C1157      C1162   1.410       .  A
C1157      C1175   1.450       .  S
C1158      C1159   1.412       .  A
C1158      C1163   1.496       .  S
C1159      C1160   1.411       .  A
C1159      C1164   1.450       .  S
C1160      C1161   1.411       .  A
C1160      C1176   1.450       .  S
C1161      C1162   1.412       .  A
C1162      C1165   1.450       .  S
C1163      C1166   1.411       .  A
C1163      C1170   1.412       .  A
C1164      N1181   1.157       .  T
C1165      N1183   1.157       .  T
C1166      C1167   1.411       .  A
C1166      C1171   1.450       .  S
C1167      C1168   1.411       .  A
C1167      C1173   1.451       .  S
C1168      C1169   1.411       .  A
C1169      C1170   1.411       .  A
C1169      C1172   1.450       .  S
C1170      C1174   1.451       .  S
C1171      N1178   1.157       .  T
C1172      N1179   1.157       .  T
C1173      N1177   1.157       .  T
C1174      N1180   1.157       .  T
C1175      N1184   1.157       .  T
C1176      N1182   1.157       .  T
C1185      C1186   1.411       .  A
C1185      C1190   1.411       .  A
C1185      C1203   1.450       .  S
C1186      C1187   1.411       .  A
C1186      C1191   1.497       .  S
C1187      C1188   1.411       .  A
C1187      C1192   1.450       .  S
C1188      C1189   1.412       .  A
C1188      C1204   1.450       .  S
C1189      C1190   1.412       .  A
C1190      C1193   1.450       .  S
C1191      C1194   1.411       .  A
C1191      C1198   1.410       .  A
C1192      N1209   1.157       .  T
C1193      N1211   1.157       .  T
C1194      C1195   1.412       .  A
C1194      C1199   1.450       .  S
C1195      C1196   1.415       .  A
C1195      C1201   1.450       .  S
C1196      C1197   1.415       .  A
C1197      C1198   1.411       .  A
C1197      C1200   1.451       .  S
C1198      C1202   1.451       .  S
C1199      N1206   1.157       .  T
C1200      N1207   1.157       .  T
C1201      N1205   1.157       .  T
C1202      N1208   1.157       .  T
C1203      N1212   1.157       .  T
C1204      N1210   1.157       .  T
C1213      C1214   1.411       .  A
C1213      C1218   1.412       .  A
C1213      C1231   1.450       .  S
C1214      C1215   1.412       .  A
C1214      C1219   1.501       .  S
C1215      C1216   1.413       .  A
C1215      C1220   1.450       .  S
C1216      C1217   1.414       .  A
C1216      C1232   1.450       .  S
C1217      C1218   1.414       .  A
C1218      C1221   1.450       .  S
C1219      C1222   1.410       .  A
C1219      C1226   1.411       .  A
C1220      N1237   1.157       .  T
C1221      N1239   1.157       .  T
C1222      C1223   1.412       .  A
C1222      C1227   1.451       .  S
C1223      C1224   1.417       .  A
C1223      C1229   1.451       .  S
C1224      C1225   1.417       .  A
C1225      C1226   1.414       .  A
C1225      C1228   1.450       .  S
C1226      C1230   1.450       .  S
C1227      N1234   1.157       .  T
C1228      N1235   1.157       .  T
C1229      N1233   1.157       .  T
C1230      N1236   1.157       .  T
C1231      N1240   1.157       .  T
C1232      N1238   1.157       .  T
C1241      C1242   1.413       .  A
C1241      C1246   1.413       .  A
C1241      C1259   1.449       .  S
C1242      C1243   1.413       .  A
C1242      C1247   1.504       .  S
C1243      C1244   1.413       .  A
C1243      C1248   1.450       .  S
C1244      C1245   1.412       .  A
C1244      C1260   1.450       .  S
C1245      C1246   1.412       .  A
C1246      C1249   1.450       .  S
C1247      C1250   1.412       .  A
C1247      C1254   1.412       .  A
C1248      N1265   1.157       .  T
C1249      N1267   1.157       .  T
C1250      C1251   1.415       .  A
C1250      C1255   1.450       .  S
C1251      C1252   1.413       .  A
C1251      C1257   1.450       .  S
C1252      C1253   1.414       .  A
C1253      C1254   1.414       .  A
C1253      C1256   1.450       .  S
C1254      C1258   1.450       .  S
C1255      N1262   1.157       .  T
C1256      N1263   1.157       .  T
C1257      N1261   1.157       .  T
C1258      N1264   1.157       .  T
C1259      N1268   1.157       .  T
C1260      N1266   1.157       .  T
C1269      C1270   1.411       .  A
C1269      C1274   1.413       .  A
C1269      C1287   1.451       .  S
C1270      C1271   1.411       .  A
C1270      C1275   1.502       .  S
C1271      C1272   1.414       .  A
C1271      C1276   1.450       .  S
C1272      C1273   1.414       .  A
C1272      C1288   1.450       .  S
C1273      C1274   1.416       .  A
C1274      C1277   1.450       .  S
C1275      C1278   1.412       .  A
C1275      C1282   1.412       .  A
C1276      N1293   1.157       .  T
C1277      N1295   1.157       .  T
C1278      C1279   1.413       .  A
C1278      C1283   1.450       .  S
C1279      C1280   1.414       .  A
C1279      C1285   1.450       .  S
C1280      C1281   1.414       .  A
C1281      C1282   1.414       .  A
C1281      C1284   1.450       .  S
C1282      C1286   1.450       .  S
C1283      N1290   1.157       .  T
C1284      N1291   1.157       .  T
C1285      N1289   1.157       .  T
C1286      N1292   1.157       .  T
C1287      N1296   1.157       .  T
C1288      N1294   1.157       .  T
C1297      C1298   1.409       .  A
C1297      C1302   1.411       .  A
C1297      C1315   1.451       .  S
C1298      C1299   1.410   1_455  A
C1298      C1303   1.498       .  S
C1299      C1300   1.413       .  A
C1299      C1304   1.450       .  S
C1300      C1301   1.417   1_655  A
C1300      C1316   1.450       .  S
C1301      C1302   1.418       .  A
C1302      C1305   1.451       .  S
C1303      C1306   1.409   1_455  A
C1303      C1310   1.410       .  A
C1304      N1321   1.157       .  T
C1305      N1323   1.157       .  T
C1306      C1307   1.413       .  A
C1306      C1311   1.451       .  S
C1307      C1308   1.420   1_655  A
C1307      C1313   1.451       .  S
C1308      C1309   1.417       .  A
C1309      C1310   1.412       .  A
C1309      C1312   1.450       .  S
C1310      C1314   1.451       .  S
C1311      N1318   1.157       .  T
C1312      N1319   1.157       .  T
C1313      N1317   1.157       .  T
C1314      N1320   1.157       .  T
C1315      N1324   1.157       .  T
C1316      N1322   1.157       .  T
C1325      C1326   1.412       .  A
C1325      C1330   1.409       .  A
C1325      C1343   1.451       .  S
C1326      C1327   1.410   1_565  A
C1326      C1331   1.494       .  S
C1327      C1328   1.411       .  A
C1327      C1332   1.449       .  S
C1328      C1329   1.412   1_545  A
C1328      C1344   1.450       .  S
C1329      C1330   1.412       .  A
C1330      C1333   1.451       .  S
C1331      C1334   1.411       .  A
C1331      C1338   1.410   1_565  A
C1332      N1349   1.157       .  T
C1333      N1351   1.157       .  T
C1334      C1335   1.411       .  A
C1334      C1339   1.450       .  S
C1335      C1336   1.412       .  A
C1335      C1341   1.450       .  S
C1336      C1337   1.413   1_565  A
C1337      C1338   1.410       .  A
C1337      C1340   1.451       .  S
C1338      C1342   1.450       .  S
C1339      N1346   1.157       .  T
C1340      N1347   1.157       .  T
C1341      N1345   1.157       .  T
C1342      N1348   1.157       .  T
C1343      N1352   1.157       .  T
C1344      N1350   1.157       .  T
C1353      C1354   1.412       .  A
C1353      C1358   1.412       .  A
C1353      C1371   1.450   1_565  S
C1354      C1355   1.413       .  A
C1354      C1359   1.497       .  S
C1355      C1356   1.409       .  A
C1355      C1360   1.451       .  S
C1356      C1357   1.411       .  A
C1356      C1372   1.451       .  S
C1357      C1358   1.412       .  A
C1358      C1361   1.450   1_565  S
C1359      C1362   1.412       .  A
C1359      C1366   1.413   1_565  A
C1360      N1377   1.157       .  T
C1361      N1379   1.157       .  T
C1362      C1363   1.409       .  A
C1362      C1367   1.450       .  S
C1363      C1364   1.410       .  A
C1363      C1369   1.451       .  S
C1364      C1365   1.411   1_565  A
C1365      C1366   1.411       .  A
C1365      C1368   1.450       .  S
C1366      C1370   1.450       .  S
C1367      N1374   1.157       .  T
C1368      N1375   1.157       .  T
C1369      N1373   1.157       .  T
C1370      N1376   1.157       .  T
C1371      N1380   1.157       .  T
C1372      N1378   1.157       .  T
C1381      C1382   1.410       .  A
C1381      C1386   1.412       .  A
C1381      C1399   1.450       .  S
C1382      C1383   1.410       .  A
C1382      C1387   1.496       .  S
C1383      C1384   1.411       .  A
C1383      C1388   1.451       .  S
C1384      C1385   1.416       .  A
C1384      C1400   1.451       .  S
C1385      C1386   1.416       .  A
C1386      C1389   1.450       .  S
C1387      C1390   1.411       .  A
C1387      C1394   1.412       .  A
C1388      N1405   1.157       .  T
C1389      N1407   1.157       .  T
C1390      C1391   1.411       .  A
C1390      C1395   1.450       .  S
C1391      C1392   1.412       .  A
C1391      C1397   1.450       .  S
C1392      C1393   1.411       .  A
C1393      C1394   1.410       .  A
C1393      C1396   1.450       .  S
C1394      C1398   1.450       .  S
C1395      N1402   1.157       .  T
C1396      N1403   1.157       .  T
C1397      N1401   1.157       .  T
C1398      N1404   1.157       .  T
C1399      N1408   1.157       .  T
C1400      N1406   1.157       .  T
C1409      C1410   1.413       .  A
C1409      C1414   1.411       .  A
C1409      C1427   1.450       .  S
C1410      C1411   1.413       .  A
C1410      C1415   1.500       .  S
C1411      C1412   1.412       .  A
C1411      C1416   1.450       .  S
C1412      C1413   1.412       .  A
C1412      C1428   1.450       .  S
C1413      C1414   1.411       .  A
C1414      C1417   1.450       .  S
C1415      C1418   1.412       .  A
C1415      C1422   1.412       .  A
C1416      N1433   1.157       .  T
C1417      N1435   1.157       .  T
C1418      C1419   1.412       .  A
C1418      C1423   1.450       .  S
C1419      C1420   1.413       .  A
C1419      C1425   1.450       .  S
C1420      C1421   1.414       .  A
C1421      C1422   1.412       .  A
C1421      C1424   1.451       .  S
C1422      C1426   1.451       .  S
C1423      N1430   1.157       .  T
C1424      N1431   1.157       .  T
C1425      N1429   1.157       .  T
C1426      N1432   1.157       .  T
C1427      N1436   1.157       .  T
C1428      N1434   1.157       .  T
C1437      C1438   1.414       .  A
C1437      C1442   1.414       .  A
C1437      C1455   1.450       .  S
C1438      C1439   1.414       .  A
C1438      C1443   1.507       .  S
C1439      C1440   1.413       .  A
C1439      C1444   1.450       .  S
C1440      C1441   1.412       .  A
C1440      C1456   1.450       .  S
C1441      C1442   1.412       .  A
C1442      C1445   1.450       .  S
C1443      C1446   1.413       .  A
C1443      C1450   1.414       .  A
C1444      N1461   1.157       .  T
C1445      N1463   1.157       .  T
C1446      C1447   1.414       .  A
C1446      C1451   1.450       .  S
C1447      C1448   1.414       .  A
C1447      C1453   1.451       .  S
C1448      C1449   1.413       .  A
C1449      C1450   1.415       .  A
C1449      C1452   1.450       .  S
C1450      C1454   1.450       .  S
C1451      N1458   1.157       .  T
C1452      N1459   1.157       .  T
C1453      N1457   1.157       .  T
C1454      N1460   1.157       .  T
C1455      N1464   1.157       .  T
C1456      N1462   1.157       .  T
C1465      C1466   1.413       .  A
C1465      C1470   1.411       .  A
C1465      C1483   1.451       .  S
C1466      C1467   1.412   1_455  A
C1466      C1471   1.501       .  S
C1467      C1468   1.413       .  A
C1467      C1472   1.450       .  S
C1468      C1469   1.412   1_655  A
C1468      C1484   1.450       .  S
C1469      C1470   1.412       .  A
C1470      C1473   1.451       .  S
C1471      C1474   1.410   1_455  A
C1471      C1478   1.411       .  A
C1472      N1489   1.157       .  T
C1473      N1491   1.157       .  T
C1474      C1475   1.410       .  A
C1474      C1479   1.452       .  S
C1475      C1476   1.419   1_655  A
C1475      C1481   1.451       .  S
C1476      C1477   1.417       .  A
C1477      C1478   1.415       .  A
C1477      C1480   1.450       .  S
C1478      C1482   1.450       .  S
C1479      N1486   1.157       .  T
C1480      N1487   1.157       .  T
C1481      N1485   1.157       .  T
C1482      N1488   1.157       .  T
C1483      N1492   1.157       .  T
C1484      N1490   1.157       .  T
C1493      C1494   1.412       .  A
C1493      C1498   1.414       .  A
C1493      C1511   1.453       .  S
C1494      C1495   1.413       .  A
C1494      C1499   1.511       .  S
C1495      C1496   1.416       .  A
C1495      C1500   1.452       .  S
C1496      C1497   1.423       .  A
C1496      C1512   1.450       .  S
C1497      C1498   1.424       .  A
C1498      C1501   1.451       .  S
C1499      C1502   1.415       .  A
C1499      C1506   1.416       .  A
C1500      N1517   1.157       .  T
C1501      N1519   1.158       .  T
C1502      C1503   1.413       .  A
C1502      C1507   1.451       .  S
C1503      C1504   1.416       .  A
C1503      C1509   1.451       .  S
C1504      C1505   1.415       .  A
C1505      C1506   1.413       .  A
C1505      C1508   1.451       .  S
C1506      C1510   1.451       .  S
C1507      N1514   1.157       .  T
C1508      N1515   1.157       .  T
C1509      N1513   1.157       .  T
C1510      N1516   1.157       .  T
C1511      N1520   1.157       .  T
C1512      N1518   1.158       .  T
C1521      C1522   1.411       .  A
C1521      C1526   1.413       .  A
C1521      C1539   1.450       .  S
C1522      C1523   1.413       .  A
C1522      C1527   1.502       .  S
C1523      C1524   1.413       .  A
C1523      C1528   1.450       .  S
C1524      C1525   1.412       .  A
C1524      C1540   1.450       .  S
C1525      C1526   1.413       .  A
C1526      C1529   1.450       .  S
C1527      C1530   1.411       .  A
C1527      C1534   1.412       .  A
C1528      N1545   1.157       .  T
C1529      N1547   1.157       .  T
C1530      C1531   1.411       .  A
C1530      C1535   1.450       .  S
C1531      C1532   1.414       .  A
C1531      C1537   1.451       .  S
C1532      C1533   1.414       .  A
C1533      C1534   1.415       .  A
C1533      C1536   1.450       .  S
C1534      C1538   1.450       .  S
C1535      N1542   1.157       .  T
C1536      N1543   1.157       .  T
C1537      N1541   1.157       .  T
C1538      N1544   1.157       .  T
C1539      N1548   1.157       .  T
C1540      N1546   1.157       .  T
C1549      C1550   1.411       .  A
C1549      C1554   1.411       .  A
C1549      C1567   1.449       .  S
C1550      C1551   1.412       .  A
C1550      C1555   1.497       .  S
C1551      C1552   1.410       .  A
C1551      C1556   1.450       .  S
C1552      C1553   1.411       .  A
C1552      C1568   1.451       .  S
C1553      C1554   1.411       .  A
C1554      C1557   1.450       .  S
C1555      C1558   1.411       .  A
C1555      C1562   1.411       .  A
C1556      N1573   1.157       .  T
C1557      N1575   1.157       .  T
C1558      C1559   1.411       .  A
C1558      C1563   1.450       .  S
C1559      C1560   1.412       .  A
C1559      C1565   1.450       .  S
C1560      C1561   1.412       .  A
C1561      C1562   1.412       .  A
C1561      C1564   1.450       .  S
C1562      C1566   1.451       .  S
C1563      N1570   1.157       .  T
C1564      N1571   1.157       .  T
C1565      N1569   1.157       .  T
C1566      N1572   1.157       .  T
C1567      N1576   1.157       .  T
C1568      N1574   1.157       .  T
C1577      C1578   1.412       .  A
C1577      C1582   1.410       .  A
C1577      C1595   1.450       .  S
C1578      C1579   1.413       .  A
C1578      C1583   1.500       .  S
C1579      C1580   1.413       .  A
C1579      C1584   1.450       .  S
C1580      C1581   1.412       .  A
C1580      C1596   1.450       .  S
C1581      C1582   1.412       .  A
C1582      C1585   1.450       .  S
C1583      C1586   1.412       .  A
C1583      C1590   1.412       .  A
C1584      N1601   1.157       .  T
C1585      N1603   1.157       .  T
C1586      C1587   1.412       .  A
C1586      C1591   1.450       .  S
C1587      C1588   1.412       .  A
C1587      C1593   1.450       .  S
C1588      C1589   1.411       .  A
C1589      C1590   1.412       .  A
C1589      C1592   1.450       .  S
C1590      C1594   1.450       .  S
C1591      N1598   1.157       .  T
C1592      N1599   1.157       .  T
C1593      N1597   1.157       .  T
C1594      N1600   1.157       .  T
C1595      N1604   1.157       .  T
C1596      N1602   1.157       .  T
C1605      C1606   1.412       .  A
C1605      C1610   1.411       .  A
C1605      C1623   1.450       .  S
C1606      C1607   1.413       .  A
C1606      C1611   1.498       .  S
C1607      C1608   1.410       .  A
C1607      C1612   1.450       .  S
C1608      C1609   1.411       .  A
C1608      C1624   1.450       .  S
C1609      C1610   1.412       .  A
C1610      C1613   1.450       .  S
C1611      C1614   1.411       .  A
C1611      C1618   1.410       .  A
C1612      N1629   1.157       .  T
C1613      N1631   1.157       .  T
C1614      C1615   1.413       .  A
C1614      C1619   1.450       .  S
C1615      C1616   1.416       .  A
C1615      C1621   1.450       .  S
C1616      C1617   1.415       .  A
C1617      C1618   1.410       .  A
C1617      C1620   1.451       .  S
C1618      C1622   1.451       .  S
C1619      N1626   1.157       .  T
C1620      N1627   1.157       .  T
C1621      N1625   1.157       .  T
C1622      N1628   1.157       .  T
C1623      N1632   1.157       .  T
C1624      N1630   1.157       .  T
C1633      C1634   1.412       .  A
C1633      C1638   1.415       .  A
C1633      C1651   1.450       .  S
C1634      C1635   1.412       .  A
C1634      C1639   1.501       .  S
C1635      C1636   1.411       .  A
C1635      C1640   1.450       .  S
C1636      C1637   1.412       .  A
C1636      C1652   1.449       .  S
C1637      C1638   1.414       .  A
C1638      C1641   1.450       .  S
C1639      C1642   1.410       .  A
C1639      C1646   1.412       .  A
C1640      N1657   1.157       .  T
C1641      N1659   1.157       .  T
C1642      C1643   1.411       .  A
C1642      C1647   1.450       .  S
C1643      C1644   1.414       .  A
C1643      C1649   1.450       .  S
C1644      C1645   1.414       .  A
C1645      C1646   1.415       .  A
C1645      C1648   1.450       .  S
C1646      C1650   1.450       .  S
C1647      N1654   1.157       .  T
C1648      N1655   1.157       .  T
C1649      N1653   1.157       .  T
C1650      N1656   1.157       .  T
C1651      N1660   1.157       .  T
C1652      N1658   1.157       .  T
C1661      C1662   1.412       .  A
C1661      C1666   1.413       .  A
C1661      C1679   1.450       .  S
C1662      C1663   1.412       .  A
C1662      C1667   1.502       .  S
C1663      C1664   1.412       .  A
C1663      C1668   1.450       .  S
C1664      C1665   1.413       .  A
C1664      C1680   1.451       .  S
C1665      C1666   1.413       .  A
C1666      C1669   1.450       .  S
C1667      C1670   1.411       .  A
C1667      C1674   1.412       .  A
C1668      N1685   1.157       .  T
C1669      N1687   1.157       .  T
C1670      C1671   1.412       .  A
C1670      C1675   1.450       .  S
C1671      C1672   1.416       .  A
C1671      C1677   1.451       .  S
C1672      C1673   1.414       .  A
C1673      C1674   1.414       .  A
C1673      C1676   1.450       .  S
C1674      C1678   1.450       .  S
C1675      N1682   1.157       .  T
C1676      N1683   1.157       .  T
C1677      N1681   1.157       .  T
C1678      N1684   1.157       .  T
C1679      N1688   1.157       .  T
C1680      N1686   1.157       .  T
C1689      C1690   1.411       .  A
C1689      C1694   1.412       .  A
C1689      C1707   1.450       .  S
C1690      C1691   1.412       .  A
C1690      C1695   1.500       .  S
C1691      C1692   1.411       .  A
C1691      C1696   1.451       .  S
C1692      C1693   1.415       .  A
C1692      C1708   1.451       .  S
C1693      C1694   1.416       .  A
C1694      C1697   1.450       .  S
C1695      C1698   1.411       .  A
C1695      C1702   1.412       .  A
C1696      N1713   1.157       .  T
C1697      N1715   1.157       .  T
C1698      C1699   1.411       .  A
C1698      C1703   1.451       .  S
C1699      C1700   1.415       .  A
C1699      C1705   1.451       .  S
C1700      C1701   1.414       .  A
C1701      C1702   1.414       .  A
C1701      C1704   1.450       .  S
C1702      C1706   1.450       .  S
C1703      N1710   1.157       .  T
C1704      N1711   1.157       .  T
C1705      N1709   1.157       .  T
C1706      N1712   1.157       .  T
C1707      N1716   1.157       .  T
C1708      N1714   1.157       .  T
C1717      C1718   1.412       .  A
C1717      C1722   1.412       .  A
C1717      C1735   1.449       .  S
C1718      C1719   1.413       .  A
C1718      C1723   1.500       .  S
C1719      C1720   1.411       .  A
C1719      C1724   1.450       .  S
C1720      C1721   1.411       .  A
C1720      C1736   1.450       .  S
C1721      C1722   1.412       .  A
C1722      C1725   1.450       .  S
C1723      C1726   1.411       .  A
C1723      C1730   1.410       .  A
C1724      N1741   1.157       .  T
C1725      N1743   1.157       .  T
C1726      C1727   1.414       .  A
C1726      C1731   1.450       .  S
C1727      C1728   1.415       .  A
C1727      C1733   1.450       .  S
C1728      C1729   1.416       .  A
C1729      C1730   1.412       .  A
C1729      C1732   1.451       .  S
C1730      C1734   1.451       .  S
C1731      N1738   1.157       .  T
C1732      N1739   1.157       .  T
C1733      N1737   1.157       .  T
C1734      N1740   1.157       .  T
C1735      N1744   1.157       .  T
C1736      N1742   1.157       .  T
C1745      C1746   1.412       .  A
C1745      C1750   1.413       .  A
C1745      C1763   1.450       .  S
C1746      C1747   1.413       .  A
C1746      C1751   1.504       .  S
C1747      C1748   1.414       .  A
C1747      C1752   1.450       .  S
C1748      C1749   1.413       .  A
C1748      C1764   1.450       .  S
C1749      C1750   1.413       .  A
C1750      C1753   1.450       .  S
C1751      C1754   1.413       .  A
C1751      C1758   1.413       .  A
C1752      N1769   1.157       .  T
C1753      N1771   1.157       .  T
C1754      C1755   1.414       .  A
C1754      C1759   1.450       .  S
C1755      C1756   1.412       .  A
C1755      C1761   1.450       .  S
C1756      C1757   1.411       .  A
C1757      C1758   1.413       .  A
C1757      C1760   1.450       .  S
C1758      C1762   1.450       .  S
C1759      N1766   1.157       .  T
C1760      N1767   1.157       .  T
C1761      N1765   1.157       .  T
C1762      N1768   1.157       .  T
C1763      N1772   1.157       .  T
C1764      N1770   1.157       .  T
C1773      C1774   1.413       .  A
C1773      C1778   1.412       .  A
C1773      C1791   1.450       .  S
C1774      C1775   1.413       .  A
C1774      C1779   1.501       .  S
C1775      C1776   1.411       .  A
C1775      C1780   1.450       .  S
C1776      C1777   1.411       .  A
C1776      C1792   1.450       .  S
C1777      C1778   1.412       .  A
C1778      C1781   1.450       .  S
C1779      C1782   1.411       .  A
C1779      C1786   1.413       .  A
C1780      N1797   1.157       .  T
C1781      N1799   1.157       .  T
C1782      C1783   1.411       .  A
C1782      C1787   1.451       .  S
C1783      C1784   1.415       .  A
C1783      C1789   1.451       .  S
C1784      C1785   1.413       .  A
C1785      C1786   1.414       .  A
C1785      C1788   1.450       .  S
C1786      C1790   1.450       .  S
C1787      N1794   1.157       .  T
C1788      N1795   1.157       .  T
C1789      N1793   1.157       .  T
C1790      N1796   1.157       .  T
C1791      N1800   1.157       .  T
C1792      N1798   1.157       .  T
C1801      C1802   1.410       .  A
C1801      C1806   1.411       .  A
C1801      C1819   1.451       .  S
C1802      C1803   1.411       .  A
C1802      C1807   1.498       .  S
C1803      C1804   1.413       .  A
C1803      C1808   1.450       .  S
C1804      C1805   1.414       .  A
C1804      C1820   1.450       .  S
C1805      C1806   1.415       .  A
C1806      C1809   1.451       .  S
C1807      C1810   1.411       .  A
C1807      C1814   1.412       .  A
C1808      N1825   1.157       .  T
C1809      N1827   1.157       .  T
C1810      C1811   1.410       .  A
C1810      C1815   1.450       .  S
C1811      C1812   1.412       .  A
C1811      C1817   1.450       .  S
C1812      C1813   1.413       .  A
C1813      C1814   1.413       .  A
C1813      C1816   1.450       .  S
C1814      C1818   1.450       .  S
C1815      N1822   1.157       .  T
C1816      N1823   1.157       .  T
C1817      N1821   1.157       .  T
C1818      N1824   1.157       .  T
C1819      N1828   1.157       .  T
C1820      N1826   1.157       .  T
C1829      C1830   1.412       .  A
C1829      C1834   1.412       .  A
C1829      C1847   1.450       .  S
C1830      C1831   1.412       .  A
C1830      C1835   1.499       .  S
C1831      C1832   1.411       .  A
C1831      C1836   1.451       .  S
C1832      C1833   1.413       .  A
C1832      C1848   1.451       .  S
C1833      C1834   1.412       .  A
C1834      C1837   1.451       .  S
C1835      C1838   1.412       .  A
C1835      C1842   1.411       .  A
C1836      N1853   1.157       .  T
C1837      N1855   1.157       .  T
C1838      C1839   1.411       .  A
C1838      C1843   1.450       .  S
C1839      C1840   1.413       .  A
C1839      C1845   1.450       .  S
C1840      C1841   1.415       .  A
C1841      C1842   1.412       .  A
C1841      C1844   1.450       .  S
C1842      C1846   1.451       .  S
C1843      N1850   1.157       .  T
C1844      N1851   1.157       .  T
C1845      N1849   1.157       .  T
C1846      N1852   1.157       .  T
C1847      N1856   1.157       .  T
C1848      N1854   1.157       .  T
C1857      C1858   1.413       .  A
C1857      C1862   1.411       .  A
C1857      C1875   1.451       .  S
C1858      C1859   1.412       .  A
C1858      C1863   1.501       .  S
C1859      C1860   1.414       .  A
C1859      C1864   1.450       .  S
C1860      C1861   1.415       .  A
C1860      C1876   1.450       .  S
C1861      C1862   1.412       .  A
C1862      C1865   1.450       .  S
C1863      C1866   1.413       .  A
C1863      C1870   1.413       .  A
C1864      N1881   1.157       .  T
C1865      N1883   1.157       .  T
C1866      C1867   1.410       .  A
C1866      C1871   1.451       .  S
C1867      C1868   1.411       .  A
C1867      C1873   1.450       .  S
C1868      C1869   1.412       .  A
C1869      C1870   1.413       .  A
C1869      C1872   1.450       .  S
C1870      C1874   1.450       .  S
C1871      N1878   1.157       .  T
C1872      N1879   1.157       .  T
C1873      N1877   1.157       .  T
C1874      N1880   1.157       .  T
C1875      N1884   1.157       .  T
C1876      N1882   1.157       .  T
C1885      C1886   1.411       .  A
C1885      C1890   1.411       .  A
C1885      C1903   1.450       .  S
C1886      C1887   1.411       .  A
C1886      C1891   1.496       .  S
C1887      C1888   1.410       .  A
C1887      C1892   1.450       .  S
C1888      C1889   1.413       .  A
C1888      C1904   1.451       .  S
C1889      C1890   1.413       .  A
C1890      C1893   1.450       .  S
C1891      C1894   1.410       .  A
C1891      C1898   1.410       .  A
C1892      N1909   1.157       .  T
C1893      N1911   1.157       .  T
C1894      C1895   1.413       .  A
C1894      C1899   1.450       .  S
C1895      C1896   1.417       .  A
C1895      C1901   1.450       .  S
C1896      C1897   1.415       .  A
C1897      C1898   1.410       .  A
C1897      C1900   1.451       .  S
C1898      C1902   1.451       .  S
C1899      N1906   1.157       .  T
C1900      N1907   1.157       .  T
C1901      N1905   1.157       .  T
C1902      N1908   1.157       .  T
C1903      N1912   1.157       .  T
C1904      N1910   1.157       .  T
C1913      C1914   1.410       .  A
C1913      C1918   1.411       .  A
C1913      C1931   1.452       .  S
C1914      C1915   1.409       .  A
C1914      C1919   1.497       .  S
C1915      C1916   1.412       .  A
C1915      C1920   1.450       .  S
C1916      C1917   1.416       .  A
C1916      C1932   1.450       .  S
C1917      C1918   1.418       .  A
C1918      C1921   1.451       .  S
C1919      C1922   1.411       .  A
C1919      C1926   1.409       .  A
C1920      N1937   1.157       .  T
C1921      N1939   1.157       .  T
C1922      C1923   1.413       .  A
C1922      C1927   1.450       .  S
C1923      C1924   1.416       .  A
C1923      C1929   1.451       .  S
C1924      C1925   1.416       .  A
C1925      C1926   1.409       .  A
C1925      C1928   1.451       .  S
C1926      C1930   1.451       .  S
C1927      N1934   1.157       .  T
C1928      N1935   1.157       .  T
C1929      N1933   1.157       .  T
C1930      N1936   1.157       .  T
C1931      N1940   1.157       .  T
C1932      N1938   1.157       .  T
C1941      C1942   1.411       .  A
C1941      C1946   1.414       .  A
C1941      C1959   1.450       .  S
C1942      C1943   1.412       .  A
C1942      C1947   1.503       .  S
C1943      C1944   1.414       .  A
C1943      C1948   1.451       .  S
C1944      C1945   1.416       .  A
C1944      C1960   1.451       .  S
C1945      C1946   1.416       .  A
C1946      C1949   1.450       .  S
C1947      C1950   1.411       .  A
C1947      C1954   1.412       .  A
C1948      N1965   1.157       .  T
C1949      N1967   1.157       .  T
C1950      C1951   1.412       .  A
C1950      C1955   1.451       .  S
C1951      C1952   1.415       .  A
C1951      C1957   1.451       .  S
C1952      C1953   1.415       .  A
C1953      C1954   1.416       .  A
C1953      C1956   1.450       .  S
C1954      C1958   1.449       .  S
C1955      N1962   1.157       .  T
C1956      N1963   1.157       .  T
C1957      N1961   1.157       .  T
C1958      N1964   1.157       .  T
C1959      N1968   1.157       .  T
C1960      N1966   1.157       .  T
C1969      C1970   1.413       .  A
C1969      C1974   1.411       .  A
C1969      C1987   1.451       .  S
C1970      C1971   1.413       .  A
C1970      C1975   1.501   1_565  S
C1971      C1972   1.411       .  A
C1971      C1976   1.451       .  S
C1972      C1973   1.414       .  A
C1972      C1988   1.451       .  S
C1973      C1974   1.413       .  A
C1974      C1977   1.451       .  S
C1975      C1978   1.412       .  A
C1975      C1982   1.412       .  A
C1976      N1993   1.157       .  T
C1977      N1995   1.157       .  T
C1978      C1979   1.412       .  A
C1978      C1983   1.451       .  S
C1979      C1980   1.414       .  A
C1979      C1985   1.451       .  S
C1980      C1981   1.415       .  A
C1981      C1982   1.411       .  A
C1981      C1984   1.451       .  S
C1982      C1986   1.451       .  S
C1983      N1990   1.157   1_545  T
C1984      N1991   1.157       .  T
C1985      N1989   1.157       .  T
C1986      N1992   1.157   1_545  T
C1987      N1996   1.157       .  T
C1988      N1994   1.157       .  T
C1997      C1998   1.412       .  A
C1997      C2002   1.413       .  A
C1997      C2015   1.451       .  S
C1998      C1999   1.411       .  A
C1998      C2003   1.500       .  S
C1999      C2000   1.413       .  A
C1999      C2004   1.450       .  S
C2000      C2001   1.412       .  A
C2000      C2016   1.450       .  S
C2001      C2002   1.413       .  A
C2002      C2005   1.450       .  S
C2003      C2006   1.412       .  A
C2003      C2010   1.412       .  A
C2004      N2021   1.157       .  T
C2005      N2023   1.157       .  T
C2006      C2007   1.411       .  A
C2006      C2011   1.450       .  S
C2007      C2008   1.412       .  A
C2007      C2013   1.451       .  S
C2008      C2009   1.412       .  A
C2009      C2010   1.413       .  A
C2009      C2012   1.450       .  S
C2010      C2014   1.450       .  S
C2011      N2018   1.157       .  T
C2012      N2019   1.157       .  T
C2013      N2017   1.157       .  T
C2014      N2020   1.157       .  T
C2015      N2024   1.157       .  T
C2016      N2022   1.157       .  T
C2025      C2026   1.412       .  A
C2025      C2030   1.416       .  A
C2025      C2043   1.449       .  S
C2026      C2027   1.411       .  A
C2026      C2031   1.502       .  S
C2027      C2028   1.411       .  A
C2027      C2032   1.451       .  S
C2028      C2029   1.416       .  A
C2028      C2044   1.451       .  S
C2029      C2030   1.415       .  A
C2030      C2033   1.450       .  S
C2031      C2034   1.410       .  A
C2031      C2038   1.411       .  A
C2032      N2049   1.157       .  T
C2033      N2051   1.157       .  T
C2034      C2035   1.414       .  A
C2034      C2039   1.450       .  S
C2035      C2036   1.418       .  A
C2035      C2041   1.450       .  S
C2036      C2037   1.417       .  A
C2037      C2038   1.413       .  A
C2037      C2040   1.451       .  S
C2038      C2042   1.451       .  S
C2039      N2046   1.157       .  T
C2040      N2047   1.157       .  T
C2041      N2045   1.157       .  T
C2042      N2048   1.157       .  T
C2043      N2052   1.157       .  T
C2044      N2050   1.157       .  T
C2053      C2054   1.408       .  A
C2053      C2058   1.409       .  A
C2053      C2071   1.451       .  S
C2054      C2055   1.409       .  A
C2054      C2059   1.493   1_455  S
C2055      C2056   1.411       .  A
C2055      C2060   1.451       .  S
C2056      C2057   1.415       .  A
C2056      C2072   1.450       .  S
C2057      C2058   1.417       .  A
C2058      C2061   1.451       .  S
C2059      C2062   1.410       .  A
C2059      C2066   1.409       .  A
C2060      N2077   1.157       .  T
C2061      N2079   1.157       .  T
C2062      C2063   1.409       .  A
C2062      C2067   1.451       .  S
C2063      C2064   1.414       .  A
C2063      C2069   1.451       .  S
C2064      C2065   1.416       .  A
C2065      C2066   1.409       .  A
C2065      C2068   1.451       .  S
C2066      C2070   1.450       .  S
C2067      N2074   1.157   1_655  T
C2068      N2075   1.157       .  T
C2069      N2073   1.157       .  T
C2070      N2076   1.157       .  T
C2071      N2080   1.157       .  T
C2072      N2078   1.157       .  T
C2081      C2082   1.412       .  A
C2081      C2086   1.414       .  A
C2081      C2099   1.450       .  S
C2082      C2083   1.409       .  A
C2082      C2087   1.499       .  S
C2083      C2084   1.411       .  A
C2083      C2088   1.451       .  S
C2084      C2085   1.417       .  A
C2084      C2100   1.451       .  S
C2085      C2086   1.413       .  A
C2086      C2089   1.450       .  S
C2087      C2090   1.410       .  A
C2087      C2094   1.410       .  A
C2088      N2105   1.157       .  T
C2089      N2107   1.157       .  T
C2090      C2091   1.413       .  A
C2090      C2095   1.450       .  S
C2091      C2092   1.416       .  A
C2091      C2097   1.450       .  S
C2092      C2093   1.418       .  A
C2093      C2094   1.411       .  A
C2093      C2096   1.451       .  S
C2094      C2098   1.451       .  S
C2095      N2102   1.157       .  T
C2096      N2103   1.157       .  T
C2097      N2101   1.157       .  T
C2098      N2104   1.157       .  T
C2099      N2108   1.157       .  T
C2100      N2106   1.157       .  T
C2109      C2110   1.412       .  A
C2109      C2114   1.412       .  A
C2109      C2127   1.451       .  S
C2110      C2111   1.413       .  A
C2110      C2115   1.502       .  S
C2111      C2112   1.413       .  A
C2111      C2116   1.450       .  S
C2112      C2113   1.413       .  A
C2112      C2128   1.450       .  S
C2113      C2114   1.417       .  A
C2114      C2117   1.451       .  S
C2115      C2118   1.412       .  A
C2115      C2122   1.412       .  A
C2116      N2133   1.157       .  T
C2117      N2135   1.157       .  T
C2118      C2119   1.411       .  A
C2118      C2123   1.451       .  S
C2119      C2120   1.417       .  A
C2119      C2125   1.451       .  S
C2120      C2121   1.415       .  A
C2121      C2122   1.413       .  A
C2121      C2124   1.450       .  S
C2122      C2126   1.451       .  S
C2123      N2130   1.157       .  T
C2124      N2131   1.157       .  T
C2125      N2129   1.157       .  T
C2126      N2132   1.157       .  T
C2127      N2136   1.157       .  T
C2128      N2134   1.157       .  T
C2137      C2138   1.410   1_556  A
C2137      C2142   1.410       .  A
C2137      C2155   1.451       .  S
C2138      C2139   1.410   1_565  A
C2138      C2143   1.495       .  S
C2139      C2140   1.411       .  A
C2139      C2144   1.451       .  S
C2140      C2141   1.416   1_545  A
C2140      C2156   1.451       .  S
C2141      C2142   1.415   1_554  A
C2142      C2145   1.451       .  S
C2143      C2146   1.410       .  A
C2143      C2150   1.411   1_564  A
C2144      N2161   1.157       .  T
C2145      N2163   1.157       .  T
C2146      C2147   1.410       .  A
C2146      C2151   1.450       .  S
C2147      C2148   1.415       .  A
C2147      C2153   1.451       .  S
C2148      C2149   1.415   1_564  A
C2149      C2150   1.411       .  A
C2149      C2152   1.450       .  S
C2150      C2154   1.451       .  S
C2151      N2158   1.157       .  T
C2152      N2159   1.157       .  T
C2153      N2157   1.157       .  T
C2154      N2160   1.157       .  T
C2155      N2164   1.157       .  T
C2156      N2162   1.157       .  T
C2165      C2166   1.410       .  A
C2165      C2170   1.408       .  A
C2165      C2183   1.451       .  S
C2166      C2167   1.409   1_565  A
C2166      C2171   1.491       .  S
C2167      C2168   1.410       .  A
C2167      C2172   1.450       .  S
C2168      C2169   1.414   1_545  A
C2168      C2184   1.450       .  S
C2169      C2170   1.412       .  A
C2170      C2173   1.451       .  S
C2171      C2174   1.410   1_565  A
C2171      C2178   1.410       .  A
C2172      N2189   1.157       .  T
C2173      N2191   1.157       .  T
C2174      C2175   1.407       .  A
C2174      C2179   1.451       .  S
C2175      C2176   1.413   1_545  A
C2175      C2181   1.451       .  S
C2176      C2177   1.413       .  A
C2177      C2178   1.410       .  A
C2177      C2180   1.451       .  S
C2178      C2182   1.450       .  S
C2179      N2186   1.157       .  T
C2180      N2187   1.157       .  T
C2181      N2185   1.157       .  T
C2182      N2188   1.157       .  T
C2183      N2192   1.157       .  T
C2184      N2190   1.157       .  T
C2193      C2194   1.408       .  A
C2193      C2198   1.408       .  A
C2193      C2211   1.450       .  S
C2194      C2195   1.410       .  A
C2194      C2199   1.488       .  S
C2195      C2196   1.406       .  A
C2195      C2200   1.452   1_565  S
C2196      C2197   1.413       .  A
C2196      C2212   1.451   1_565  S
C2197      C2198   1.414       .  A
C2198      C2201   1.451       .  S
C2199      C2202   1.409       .  A
C2199      C2206   1.409       .  A
C2200      N2217   1.157       .  T
C2201      N2219   1.157       .  T
C2202      C2203   1.407       .  A
C2202      C2207   1.452       .  S
C2203      C2204   1.414       .  A
C2203      C2209   1.451       .  S
C2204      C2205   1.415       .  A
C2205      C2206   1.409       .  A
C2205      C2208   1.450   1_565  S
C2206      C2210   1.451   1_565  S
C2207      N2214   1.157       .  T
C2208      N2215   1.157       .  T
C2209      N2213   1.157       .  T
C2210      N2216   1.157       .  T
C2211      N2220   1.157       .  T
C2212      N2218   1.157       .  T
C2221      C2222   1.409       .  A
C2221      C2226   1.409       .  A
C2221      C2239   1.451       .  S
C2222      C2223   1.408   1_456  A
C2222      C2227   1.492       .  S
C2223      C2224   1.409       .  A
C2223      C2228   1.451       .  S
C2224      C2225   1.418   1_654  A
C2224      C2240   1.451       .  S
C2225      C2226   1.417       .  A
C2226      C2229   1.450       .  S
C2227      C2230   1.411   1_556  A
C2227      C2234   1.411   1_455  A
C2228      N2245   1.157       .  T
C2229      N2247   1.157       .  T
C2230      C2231   1.407       .  A
C2230      C2235   1.451       .  S
C2231      C2232   1.412   1_554  A
C2231      C2237   1.451       .  S
C2232      C2233   1.413   1_455  A
C2233      C2234   1.410       .  A
C2233      C2236   1.451       .  S
C2234      C2238   1.451       .  S
C2235      N2242   1.157       .  T
C2236      N2243   1.157       .  T
C2237      N2241   1.157       .  T
C2238      N2244   1.157       .  T
C2239      N2248   1.157       .  T
C2240      N2246   1.157       .  T
C2249      C2250   1.410   1_655  A
C2249      C2254   1.412       .  A
C2249      C2267   1.451       .  S
C2250      C2251   1.409       .  A
C2250      C2255   1.499       .  S
C2251      C2252   1.413       .  A
C2251      C2256   1.450       .  S
C2252      C2253   1.418       .  A
C2252      C2268   1.450       .  S
C2253      C2254   1.418   1_455  A
C2254      C2257   1.450       .  S
C2255      C2258   1.410       .  A
C2255      C2262   1.410   1_455  A
C2256      N2273   1.157       .  T
C2257      N2275   1.157       .  T
C2258      C2259   1.411       .  A
C2258      C2263   1.451       .  S
C2259      C2260   1.416       .  A
C2259      C2265   1.451       .  S
C2260      C2261   1.416   1_455  A
C2261      C2262   1.413       .  A
C2261      C2264   1.450       .  S
C2262      C2266   1.450       .  S
C2263      N2270   1.157       .  T
C2264      N2271   1.157       .  T
C2265      N2269   1.157       .  T
C2266      N2272   1.157       .  T
C2267      N2276   1.157       .  T
C2268      N2274   1.157       .  T
C2277      C2278   1.410       .  A
C2277      C2282   1.412       .  A
C2277      C2295   1.450       .  S
C2278      C2279   1.410   1_455  A
C2278      C2283   1.498       .  S
C2279      C2280   1.412       .  A
C2279      C2284   1.451       .  S
C2280      C2281   1.416   1_655  A
C2280      C2296   1.451       .  S
C2281      C2282   1.416       .  A
C2282      C2285   1.450       .  S
C2283      C2286   1.410       .  A
C2283      C2290   1.411   1_455  A
C2284      N2301   1.157       .  T
C2285      N2303   1.157       .  T
C2286      C2287   1.409       .  A
C2286      C2291   1.451       .  S
C2287      C2288   1.415       .  A
C2287      C2293   1.451       .  S
C2288      C2289   1.415   1_455  A
C2289      C2290   1.414       .  A
C2289      C2292   1.450       .  S
C2290      C2294   1.450       .  S
C2291      N2298   1.157       .  T
C2292      N2299   1.157       .  T
C2293      N2297   1.157       .  T
C2294      N2300   1.157       .  T
C2295      N2304   1.157       .  T
C2296      N2302   1.157       .  T
