geometry optimzed in LAMMPS
_audit_creation_date              2020-11-30 
_audit_creation_method            'lammps2cif' 
_symmetry_space_group_name_H-M    'P1' 
_symmetry_Int_Tables_number       1 
_symmetry_cell_setting            triclinic 
loop_ 
_symmetry_equiv_pos_as_xyz 
  x,y,z 
_cell_length_a                    31.5500101302077 
_cell_length_b                    31.51011165253934 
_cell_length_c                    32.88681524297208 
_cell_angle_alpha                 88.33885512652353 
_cell_angle_beta                  90.45504368609535 
_cell_angle_gamma                 91.34841165972931 
loop_ 
_atom_site_label 
_atom_site_type_symbol 
_atom_site_fract_x 
_atom_site_fract_y 
_atom_site_fract_z 
_atom_site_charge 
O1          O  0.53173115  0.84568410  0.76149326    -0.84080
O2          O  0.54235028  0.88458817  0.68699987    -0.81120
C3          C  0.53495504  0.86656598  0.65204341     0.99390
O4          O  0.49724864  0.85670733  0.64220455    -0.81160
O5          O  0.41897122  0.82500187  0.66450516    -0.83800
C6          C  0.43897402  0.79254810  0.67629086     1.03910
O7          O  0.44687270  0.78766848  0.71333401    -0.76560
O8          O  0.47573465  0.81301021  0.78653535    -0.76750
C9          C  0.51475000  0.81394357  0.77886974     1.03860
O10         O  0.46872216  0.91297472  0.79197563    -0.84070
O11         O  0.48373779  0.95113849  0.71950261    -0.81140
C12         C  0.49494961  0.95981447  0.68412639     0.99410
O13         O  0.47818446  0.93809179  0.65681383    -0.81160
O14         O  0.39715398  0.90970236  0.69022755    -0.83770
C15         C  0.37232946  0.88807839  0.71318773     1.03880
O16         O  0.37806988  0.84879502  0.71878055    -0.76590
O17         O  0.41082322  0.87238952  0.78941254    -0.76740
C18         C  0.42984003  0.90403280  0.80341286     1.03840
Cr19       Cr  0.50475240  0.89722686  0.73980914     1.93740
Cr20       Cr  0.44701646  0.88175287  0.66696342     1.93210
Cr21       Cr  0.43013817  0.83260503  0.74946933     1.39100
O22         O  0.46208749  0.86983174  0.71896351    -1.21820
O23         O  0.48922609  0.17056929  0.68454646    -0.84080
O24         O  0.52192303  0.15094023  0.76246042    -0.81120
C25         C  0.53996004  0.13522235  0.79505783     0.99390
O26         O  0.53520167  0.09587447  0.80383701    -0.81160
O27         O  0.45781970  0.07589138  0.83646198    -0.83800
C28         C  0.44747489  0.11450766  0.83793175     1.03910
O29         O  0.45158345  0.13817894  0.80705880    -0.76560
O30         O  0.43504474  0.17493768  0.72915897    -0.76750
C31         C  0.45983135  0.19141074  0.70090748     1.03860
O32         O  0.43743369  0.09707528  0.67671763    -0.84070
O33         O  0.52384563  0.08910593  0.69612178    -0.81140
C34         C  0.52908165  0.05022278  0.70495175     0.99410
O35         O  0.51994906  0.03359166  0.73978700    -0.81160
O36         O  0.44087557  0.01580204  0.77203478    -0.83770
C37         C  0.40364779  0.03015202  0.77289368     1.03880
O38         O  0.39829272  0.06520963  0.78977547    -0.76590
O39         O  0.38224748  0.10009892  0.71593382    -0.76740
C40         C  0.39720952  0.09003712  0.68245141     1.03840
Cr41       Cr  0.48002773  0.12402478  0.71941026     1.93740
Cr42       Cr  0.48807561  0.05580738  0.78652610     1.93210
Cr43       Cr  0.41805726  0.11861137  0.76187522     1.39100
O44         O  0.46229568  0.09004414  0.75216233    -1.21820
O45         O  0.46268695  0.32274943  0.70622804    -0.84080
O46         O  0.40957787  0.36885827  0.75751378    -0.81120
C47         C  0.40705837  0.34728760  0.79162183     0.99390
O48         O  0.44002645  0.33290095  0.80598878    -0.81160
O49         O  0.51526134  0.32838376  0.83891723    -0.83800
C50         C  0.52614140  0.29566378  0.82054601     1.03910
O51         O  0.52128100  0.29448966  0.78310414    -0.76560
O52         O  0.53118270  0.31662326  0.70376578    -0.76750
C53         C  0.49454654  0.30256483  0.69593219     1.03860
O54         O  0.51971649  0.39769815  0.68480614    -0.84070
O55         O  0.46488424  0.44157749  0.73733658    -0.81140
C56         C  0.44450005  0.45099025  0.76847407     0.99410
O57         O  0.44387971  0.42635792  0.79981696    -0.81160
O58         O  0.52606472  0.41822821  0.82364944    -0.83770
C59         C  0.56313477  0.40571475  0.82028384     1.03880
O60         O  0.57142640  0.37017454  0.80520009    -0.76590
O61         O  0.57442399  0.39165409  0.72656964    -0.76740
C62         C  0.56040445  0.40237201  0.69225981     1.03840
Cr63       Cr  0.46606171  0.38208821  0.72286976     1.93740
Cr64       Cr  0.48192270  0.37632907  0.81406519     1.93210
Cr65       Cr  0.54673577  0.34439743  0.75569831     1.39100
O66         O  0.49934177  0.37027039  0.76362660    -1.21820
O67         O  0.50740603  0.66638209  0.78765192    -0.84080
O68         O  0.45724787  0.64357998  0.71644678    -0.81120
C69         C  0.45547361  0.63687365  0.67731615     0.99390
O70         O  0.47699543  0.60723586  0.66430160    -0.81160
O71         O  0.55849064  0.59376880  0.65577434    -0.83800
C72         C  0.56908222  0.63202244  0.64823814     1.03910
O73         O  0.57776684  0.65823417  0.67570575    -0.76560
O74         O  0.55905716  0.69576929  0.74955054    -0.76750
C75         C  0.53019378  0.69818428  0.77647590     1.03860
O76         O  0.54222850  0.58207762  0.79882350    -0.84070
O77         O  0.45347939  0.59311167  0.79225381    -0.81140
C78         C  0.45073414  0.55849263  0.77306282     0.99410
O79         O  0.47225405  0.55261286  0.74000022    -0.81160
O80         O  0.55862163  0.54291725  0.73061185    -0.83770
C81         C  0.59633357  0.54907354  0.72044343     1.03880
O82         O  0.61225504  0.58680346  0.71728871    -0.76590
O83         O  0.59547421  0.62717758  0.78933288    -0.76740
C84         C  0.58121321  0.59390139  0.80621933     1.03840
Cr85       Cr  0.49860329  0.61273259  0.75924283     1.93740
Cr86       Cr  0.51823133  0.57584582  0.69880760     1.93210
Cr87       Cr  0.58449195  0.64160656  0.73214127     1.39100
O88         O  0.53433773  0.61975555  0.72617068    -1.21820
O89         O  0.92408961  0.21838716  0.94346019    -0.84080
O90         O  0.91775572  0.20782767  0.02842567    -0.81120
C91         C  0.90151263  0.19833989  0.06383044     0.99390
O92         O  0.86655834  0.21418005  0.07276460    -0.81160
O93         O  0.89527452  0.29194578  0.09268890    -0.83800
C94         C  0.93422263  0.28349443  0.08857310     1.03910
O95         O  0.95208490  0.28778516  0.05472952    -0.76560
O96         O  0.95878490  0.27552608  0.97108109    -0.76750
C97         C  0.95783735  0.24057759  0.95003704     1.03860
O98         O  0.87475919  0.29180044  0.93494809    -0.84070
O99         O  0.84088542  0.21544046  0.97581628    -0.81140
C100        C  0.80560366  0.22252091  0.99247144     0.99410
O101        O  0.80277132  0.24888003  0.02084639    -0.81160
O102        O  0.83302418  0.32924368  0.03914095    -0.83770
C103        C  0.85724214  0.35813751  0.05228932     1.03880
O104        O  0.89698384  0.35836729  0.04546926    -0.76590
O105        O  0.90126006  0.34940481  0.96257539    -0.76740
C106        C  0.88081760  0.33288102  0.93395536     1.03840
Cr107      Cr  0.89542359  0.24872891  0.98119393     1.93740
Cr108      Cr  0.84961316  0.27238984  0.05474955     1.93210
Cr109      Cr  0.92509864  0.31673414  0.00904587     1.39100
O110        O  0.88154354  0.28181711  0.01360311    -1.21820
O111        O  0.55598363  0.26229791  0.95130938    -0.84080
O112        O  0.59422902  0.18937132  0.93328219    -0.81120
C113        C  0.59728329  0.18827537  0.89386093     0.99390
O114        O  0.62453313  0.21200429  0.87669712    -0.81160
O115        O  0.66343160  0.28760493  0.86167723    -0.83800
C116        C  0.62623077  0.30025598  0.85605804     1.03910
O117        O  0.60913020  0.32196209  0.88254423    -0.76560
O118        O  0.57340028  0.32849867  0.95942241    -0.76750
C119        C  0.54710613  0.29784631  0.96385968     1.03860
O120        O  0.61307311  0.28685132  0.01939017    -0.84070
O121        O  0.65900392  0.21561955  0.99985865    -0.81140
C122        C  0.68850966  0.20028337  0.97996220     0.99410
O123        O  0.68314463  0.19447327  0.94244063    -0.81160
O124        O  0.71974485  0.27143380  0.92940929    -0.83770
C125        C  0.72355942  0.31094668  0.92973995     1.03880
O126        O  0.69313190  0.33414103  0.91774925    -0.76590
O127        O  0.65495318  0.33638477  0.99150042    -0.76740
C128        C  0.63385861  0.32292359  0.02163695     1.03840
Cr129      Cr  0.60741766  0.23938544  0.97427674     1.93740
Cr130      Cr  0.67091978  0.24319225  0.90465429     1.93210
Cr131      Cr  0.63315245  0.32644028  0.93671771     1.39100
O132        O  0.63739588  0.26958824  0.93918442    -1.21820
O133        O  0.32254474  0.32191899  0.00811445    -0.84080
O134        O  0.33331257  0.23355198  0.02749864    -0.81120
C135        C  0.35282740  0.19894920  0.03819052     0.99390
O136        O  0.38722439  0.19180093  0.02129425    -0.81160
O137        O  0.34739885  0.15836837  0.95430593    -0.83800
C138        C  0.30756428  0.16557296  0.95498165     1.03910
O139        O  0.29418962  0.20211783  0.95974760    -0.76560
O140        O  0.28622611  0.29157134  0.95618740    -0.76750
C141        C  0.28929409  0.31847681  0.98594252     1.03860
O142        O  0.36574089  0.32308781  0.93349503    -0.84070
O143        O  0.40597305  0.29242369  0.00358301    -0.81140
C144        C  0.43961140  0.28024338  0.98726059     0.99410
O145        O  0.44206404  0.24417194  0.97080998    -0.81160
O146        O  0.40754773  0.20598346  0.90530279    -0.83770
C147        C  0.37934102  0.19127555  0.88232629     1.03880
O148        O  0.34087242  0.20159024  0.88525436    -0.76590
O149        O  0.33777424  0.28713436  0.88329021    -0.76740
C150        C  0.35875152  0.31881146  0.89479199     1.03840
Cr151      Cr  0.34933529  0.27931354  0.98110147     1.93740
Cr152      Cr  0.39548757  0.20159254  0.96237926     1.93210
Cr153      Cr  0.31663112  0.24448473  0.92230672     1.39100
O154        O  0.36257628  0.24320092  0.95156781    -1.21820
O155        O  0.05046077  0.23036718  0.00870958    -0.84080
O156        O  0.07945635  0.30360665  0.03940309    -0.81120
C157        C  0.08633514  0.30840536  0.07827525     0.99390
O158        O  0.11882070  0.29361642  0.09429393    -0.81160
O159        O  0.14089282  0.21652429  0.11094204    -0.83800
C160        C  0.10195839  0.20586561  0.10798464     1.03910
O161        O  0.08892882  0.18239365  0.08017508    -0.76560
O162        O  0.07319020  0.16810388  0.99835556    -0.76750
C163        C  0.04515060  0.19516089  0.99309175     1.03860
O164        O  0.12284225  0.21643893  0.95052355    -0.84070
O165        O  0.15220820  0.29614405  0.97801000    -0.81140
C166        C  0.18109775  0.31353830  0.99857384     0.99410
O167        O  0.18387537  0.30755670  0.03655229    -0.81160
O168        O  0.21165065  0.22899792  0.05240483    -0.83770
C169        C  0.20973709  0.18950429  0.05436937     1.03880
O170        O  0.17639747  0.17179322  0.06725065    -0.76590
O171        O  0.15906948  0.16825325  0.98616255    -0.76740
C172        C  0.14610271  0.18218276  0.95222969     1.03840
Cr173      Cr  0.10302488  0.26092252  0.99578810     1.93740
Cr174      Cr  0.16227045  0.25943753  0.07080421     1.93210
Cr175      Cr  0.12497998  0.17603231  0.03400580     1.39100
O176        O  0.13101954  0.23309605  0.03231541    -1.21820
O177        O  0.78883882  0.51626488  0.92186068    -0.84080
O178        O  0.83656420  0.47639724  0.87530198    -0.81120
C179        C  0.84018105  0.43567457  0.87202125     0.99390
O180        O  0.81727413  0.41634395  0.84744387    -0.81160
O181        O  0.74579379  0.38991643  0.87864788    -0.83800
C182        C  0.75156495  0.39943184  0.91600802     1.03910
O183        O  0.73879720  0.43376078  0.92966227    -0.76560
O184        O  0.72206567  0.52061683  0.92841552    -0.76750
C185        C  0.75838404  0.52406611  0.94323065     1.03860
O186        O  0.73045483  0.55588328  0.85365022    -0.84070
O187        O  0.79091945  0.52515541  0.80435625    -0.81140
C188        C  0.78574290  0.50088075  0.77535660     0.99410
O189        O  0.77816077  0.46164315  0.78081415    -0.81160
O190        O  0.70420574  0.43497808  0.80730771    -0.83770
C191        C  0.67289088  0.42925692  0.82931124     1.03880
O192        O  0.67768508  0.42471113  0.86701812    -0.76590
O193        O  0.67506798  0.51058409  0.85952607    -0.76740
C194        C  0.68967589  0.54672562  0.84914541     1.03840
Cr195      Cr  0.78503135  0.51648081  0.86302799     1.93740
Cr196      Cr  0.76015533  0.42877855  0.83044968     1.93210
Cr197      Cr  0.70644783  0.47178838  0.89431402     1.39100
O198        O  0.75084483  0.47311165  0.86116632    -1.21820
O199        O  0.70042014  0.47756789  0.41063298    -0.84080
O200        O  0.68265793  0.56259689  0.38895894    -0.81120
C201        C  0.66886301  0.59708900  0.37097264     0.99390
O202        O  0.67363469  0.60157756  0.33297192    -0.81160
O203        O  0.75451571  0.62532044  0.32104493    -0.83800
C204        C  0.75759967  0.62731702  0.35937051     1.03910
O205        O  0.76522574  0.59522123  0.38161348    -0.76560
O206        O  0.76533233  0.50997637  0.41679094    -0.76750
C207        C  0.73448751  0.48446792  0.43054662     1.03860
O208        O  0.75460707  0.45860494  0.34854862    -0.84070
O209        O  0.67058685  0.48990854  0.33211127    -0.81140
C210        C  0.66339900  0.49990374  0.29514377     0.99410
O211        O  0.68118926  0.53218969  0.27736217    -0.81160
O212        O  0.76502573  0.55872900  0.26442738    -0.83770
C213        C  0.80220807  0.55663499  0.27889894     1.03880
O214        O  0.81091280  0.57265660  0.31311798    -0.76590
O215        O  0.81490349  0.49380136  0.34617465    -0.76740
C216        C  0.79554628  0.45921513  0.34325184     1.03840
Cr217      Cr  0.71738650  0.51056938  0.36729555     1.93740
Cr218      Cr  0.71974053  0.57736919  0.29953153     1.93210
Cr219      Cr  0.78731362  0.54452269  0.36288090     1.39100
O220        O  0.74088918  0.54006489  0.33433428    -1.21820
O221        O  0.72656329  0.52087868  0.67440380    -0.84080
O222        O  0.70728733  0.45145974  0.63897685    -0.81120
C223        C  0.66636589  0.44503542  0.63615517     0.99390
O224        O  0.64658541  0.46311311  0.60841637    -0.81160
O225        O  0.61972298  0.53707388  0.59091965    -0.83800
C226        C  0.62168754  0.54298809  0.62892309     1.03910
O227        O  0.64866308  0.56878340  0.64277032    -0.76560
O228        O  0.73230487  0.58813666  0.66410236    -0.76750
C229        C  0.73877744  0.55574359  0.68664304     1.03860
O230        O  0.78716749  0.56051470  0.61003987    -0.84070
O231        O  0.76806265  0.48849155  0.56929955    -0.81140
C232        C  0.74607005  0.47302678  0.54140289     0.99410
O233        O  0.70749653  0.46376564  0.54734454    -0.81160
O234        O  0.68156101  0.54219626  0.52429484    -0.83770
C235        C  0.67184930  0.58001615  0.52687058     1.03880
O236        O  0.66311653  0.59596597  0.56073695    -0.76590
O237        O  0.74521887  0.60789861  0.58077851    -0.76740
C238        C  0.78185504  0.59703527  0.59065149     1.03840
Cr239      Cr  0.74580671  0.50586345  0.62188343     1.93740
Cr240      Cr  0.66650256  0.50385300  0.56882287     1.93210
Cr241      Cr  0.69678469  0.58665789  0.61132803     1.39100
O242        O  0.70390792  0.53192588  0.59981099    -1.21820
O243        O  0.70797147  0.52450771  0.07550856    -0.84080
O244        O  0.65148423  0.46078371  0.10053275    -0.81120
C245        C  0.65407375  0.41940738  0.09494022     0.99390
O246        O  0.67599497  0.39640426  0.11827765    -0.81160
O247        O  0.75439595  0.37710718  0.15033349    -0.83800
C248        C  0.77157290  0.38135416  0.11635373     1.03910
O249        O  0.75873042  0.40994144  0.09316374    -0.76560
O250        O  0.76300397  0.48732689  0.06124063    -0.76750
C251        C  0.73524425  0.51360668  0.05134386     1.03860
O252        O  0.74060938  0.54721624  0.15577353    -0.84070
O253        O  0.67176251  0.50248782  0.18523459    -0.81140
C254        C  0.64934598  0.47336827  0.20017007     0.99410
O255        O  0.65289112  0.43667060  0.18752335    -0.81160
O256        O  0.73912415  0.43384854  0.21144318    -0.83770
C257        C  0.77841251  0.43644563  0.20488186     1.03880
O258        O  0.79407248  0.44213514  0.16921654    -0.76590
O259        O  0.79900703  0.51797990  0.13441808    -0.76740
C260        C  0.78193604  0.54642839  0.15400069     1.03840
Cr261      Cr  0.69376521  0.50579954  0.13010568     1.93740
Cr262      Cr  0.70680638  0.41545172  0.16470180     1.93210
Cr263      Cr  0.77579317  0.46353908  0.11550881     1.39100
O264        O  0.72565187  0.46300889  0.13697478    -1.21820
O265        O  0.21214017  0.97840373  0.83013596    -0.84080
O266        O  0.29246971  0.95832489  0.86648718    -0.81120
C267        C  0.32739169  0.96017452  0.84497180     0.99390
O268        O  0.33662450  0.99406601  0.82641795    -0.81160
O269        O  0.32555186  0.07428143  0.79668852    -0.83800
C270        C  0.30728918  0.05460582  0.76865798     1.03910
O271        O  0.26763242  0.05586777  0.76750363    -0.76560
O272        O  0.19085662  0.03871489  0.80229113    -0.76750
C273        C  0.19001973  0.99864095  0.80445916     1.03860
O274        O  0.19315488  0.04389745  0.89325354    -0.84070
O275        O  0.26802714  0.02887098  0.92260692    -0.81140
C276        C  0.30219573  0.01344563  0.93244905     0.99410
O277        O  0.33226254  0.01724151  0.90742718    -0.81160
O278        O  0.31858730  0.09940398  0.87776558    -0.83770
C279        C  0.29169461  0.12530608  0.86511522     1.03880
O280        O  0.27932450  0.12466697  0.82833924    -0.76590
O281        O  0.20517408  0.10370432  0.85881927    -0.76740
C282        C  0.18833083  0.08459362  0.88859933     1.03840
Cr283      Cr  0.24238424  0.00358034  0.87636764     1.93740
Cr284      Cr  0.32503464  0.04701363  0.85134568     1.93210
Cr285      Cr  0.23815461  0.07858332  0.81537708     1.39100
O286        O  0.26789888  0.04195272  0.84685676    -1.21820
O287        O  0.22689041  0.98669070  0.42433139    -0.84080
O288        O  0.29620834  0.96462388  0.38598559    -0.81120
C289        C  0.30349317  0.92410675  0.38149303     0.99390
O290        O  0.28803595  0.90489725  0.35186506    -0.81160
O291        O  0.21802560  0.87791665  0.31060492    -0.83800
C292        C  0.21479835  0.86006614  0.34509255     1.03910
O293        O  0.19681307  0.88031116  0.37160302    -0.76560
O294        O  0.17467406  0.94003310  0.42118987    -0.76750
C295        C  0.20160405  0.96143411  0.44127328     1.03860
O296        O  0.18773641  0.03739066  0.36066575    -0.84070
O297        O  0.25950020  0.02939163  0.31936694    -0.81140
C298        C  0.28559158  0.01461212  0.29619096     0.99410
O299        O  0.29686540  0.97720396  0.30280629    -0.81160
O300        O  0.21811110  0.95842739  0.26893539    -0.83770
C301        C  0.17836727  0.95569145  0.27077051     1.03880
O302        O  0.16036841  0.93269730  0.29898665    -0.76590
O303        O  0.13736259  0.98835895  0.35310373    -0.76740
C304        C  0.14862097  0.02689140  0.35329849     1.03840
Cr305      Cr  0.24220587  0.00193527  0.37073119     1.93740
Cr306      Cr  0.25281469  0.93139662  0.31058448     1.93210
Cr307      Cr  0.17040422  0.93583109  0.35997911     1.39100
O308        O  0.22131701  0.95701609  0.34799005    -1.21820
O309        O  0.23698908  0.00214304  0.56439540    -0.84080
O310        O  0.16533528  0.95806247  0.58358313    -0.81120
C311        C  0.14756261  0.92346086  0.59596417     0.99390
O312        O  0.14866395  0.91505531  0.63341093    -0.81160
O313        O  0.21089258  0.86418079  0.61402637    -0.83800
C314        C  0.24545032  0.86538922  0.59637449     1.03910
O315        O  0.27719694  0.87883726  0.61603754    -0.76560
O316        O  0.27547594  0.94563625  0.56077904    -0.76750
C317        C  0.25265070  0.97315297  0.54426115     1.03860
O318        O  0.25235444  0.03127554  0.64618923    -0.84070
O319        O  0.17069671  0.99449017  0.66633294    -0.81140
C320        C  0.17439996  0.97485913  0.70028983     0.99410
O321        O  0.19331564  0.94019912  0.70361660    -0.81160
O322        O  0.25421456  0.88432121  0.69007386    -0.83770
C323        C  0.28458547  0.90856051  0.70007023     1.03880
O324        O  0.29986142  0.93671852  0.67610548    -0.76590
O325        O  0.30769241  0.00169382  0.61983228    -0.76740
C326        C  0.29264247  0.03143837  0.63970645     1.03840
Cr327      Cr  0.20734401  0.99380224  0.61668212     1.93740
Cr328      Cr  0.20424724  0.90381288  0.65851371     1.93210
Cr329      Cr  0.28703699  0.94073323  0.61882030     1.39100
O330        O  0.23299430  0.94681464  0.63174044    -1.21820
O331        O  0.27647425  0.98785544  0.04826434    -0.84080
O332        O  0.31569744  0.04608247  0.09323612    -0.81120
C333        C  0.31121945  0.08746390  0.08934948     0.99390
O334        O  0.27807348  0.10344292  0.10134427    -0.81160
O335        O  0.19719037  0.10050848  0.08360721    -0.83800
C336        C  0.20776395  0.09542610  0.04706692     1.03910
O337        O  0.19970669  0.06044936  0.03181060    -0.76560
O338        O  0.21063943  0.97548823  0.03241189    -0.76750
C339        C  0.24948534  0.97644158  0.02325373     1.03860
O340        O  0.22614686  0.94179711  0.11808550    -0.84070
O341        O  0.27600184  0.99294714  0.16390104    -0.81140
C342        C  0.28167342  0.02366353  0.18612009     0.99410
O343        O  0.26888896  0.05979869  0.17536121    -0.81160
O344        O  0.18470170  0.05013132  0.15769596    -0.83770
C345        C  0.14907381  0.05602661  0.14232299     1.03880
O346        O  0.14313683  0.05066189  0.10446362    -0.76590
O347        O  0.16308560  0.96948445  0.10590836    -0.76740
C348        C  0.18448794  0.94018839  0.12113535     1.03840
Cr349      Cr  0.27100592  0.99372988  0.10551136     1.93740
Cr350      Cr  0.23114766  0.07547818  0.12824279     1.93210
Cr351      Cr  0.18262445  0.01534412  0.07061577     1.39100
O352        O  0.22929902  0.02783375  0.10123106    -1.21820
O353        O  0.99895896  0.81228523  0.20990167    -0.84080
O354        O  0.94257988  0.85810613  0.25560430    -0.81120
C355        C  0.94335491  0.86033519  0.29592647     0.99390
O356        O  0.97041119  0.88390204  0.31326761    -0.81160
O357        O  0.05190185  0.91784405  0.32570556    -0.83800
C358        C  0.06363047  0.88089928  0.33240831     1.03670
O359        O  0.04745356  0.85287301  0.31145208    -0.76560
O360        O  0.05272395  0.80161426  0.25071472    -0.76750
C361        C  0.02314149  0.78796766  0.22881319     1.03860
O362        O  0.04028557  0.88607010  0.16788811    -0.84070
O363        O  0.97619705  0.93108372  0.19479509    -0.81140
C364        C  0.95411565  0.95231015  0.21688823     0.99410
O365        O  0.95411020  0.94373124  0.25417234    -0.81160
O366        O  0.04327376  0.96517127  0.25395331    -0.83770
C367        C  0.08207719  0.95544261  0.25225811     1.03880
O368        O  0.09508366  0.91903714  0.26342014    -0.76590
O369        O  0.09676186  0.86679448  0.20347754    -0.76740
C370        C  0.08130170  0.88346394  0.17169244     1.03840
Cr371      Cr  0.99037447  0.87264086  0.20924641     1.93740
Cr372      Cr  0.00599003  0.92518901  0.28397526     1.93210
Cr373      Cr  0.07041441  0.86112129  0.25780359     1.39100
O374        O  0.02249319  0.88586461  0.24903058    -1.21820
O375        O  0.97430830  0.43027772  0.24132669    -0.84080
O376        O  0.93482777  0.39315290  0.30499819    -0.81120
C377        C  0.89354703  0.39364001  0.30590036     0.99390
O378        O  0.87243447  0.37055814  0.28293472    -0.81160
O379        O  0.85876383  0.35939468  0.20532476    -0.83800
C380        C  0.86804106  0.39866516  0.20143394     1.03910
O381        O  0.90008186  0.41078519  0.18187897    -0.76560
O382        O  0.98817468  0.41921575  0.17902989    -0.76750
C383        C  0.99550967  0.43962031  0.21077192     1.03860
O384        O  0.02705921  0.35560644  0.21683159    -0.84070
O385        O  0.98509465  0.31582588  0.28796478    -0.81140
C386        C  0.95584414  0.29306757  0.30390190     0.99410
O387        O  0.91762791  0.29701681  0.29347106    -0.81160
O388        O  0.90587015  0.27992645  0.21404947    -0.83770
C389        C  0.91397818  0.28665721  0.17742800     1.03880
O390        O  0.90551825  0.32266903  0.16167505    -0.76590
O391        O  0.98926107  0.33364521  0.16458127    -0.76740
C392        C  0.02475177  0.34034227  0.17986941     1.03840
Cr393      Cr  0.97870343  0.37220531  0.26119519     1.93740
Cr394      Cr  0.89171864  0.32807139  0.24688192     1.93210
Cr395      Cr  0.94409416  0.37078103  0.17487205     1.39100
O396        O  0.93912757  0.35573894  0.22839042    -1.21820
O397        O  0.99031997  0.65806085  0.20687572    -0.84080
O398        O  0.01845926  0.64421577  0.28608284    -0.81120
C399        C  0.03506656  0.63018905  0.31985641     0.99390
O400        O  0.02810464  0.59224594  0.33148316    -0.81160
O401        O  0.94832253  0.58271674  0.36589132    -0.83800
C402        C  0.93968394  0.62174499  0.36250183     1.03910
O403        O  0.94895609  0.64106561  0.33031133    -0.76560
O404        O  0.93871813  0.67390204  0.25166305    -0.76750
C405        C  0.96643650  0.68446920  0.22358299     1.03860
O406        O  0.93032209  0.59195255  0.20293482    -0.84070
O407        O  0.01598223  0.57657154  0.22567801    -0.81140
C408        C  0.01944809  0.53849495  0.23800705     0.99410
O409        O  0.00828341  0.52550177  0.27385188    -0.81160
O410        O  0.92962859  0.51761343  0.31110267    -0.83770
C411        C  0.89375418  0.53408845  0.30598569     1.03880
O412        O  0.88761621  0.57202195  0.31696803    -0.76590
O413        O  0.87574207  0.60509804  0.24016884    -0.76740
C414        C  0.88946462  0.59177791  0.20725362     1.03840
Cr415      Cr  0.97504348  0.61688625  0.24480864     1.93740
Cr416      Cr  0.97820133  0.55539601  0.31865426     1.93210
Cr417      Cr  0.91363032  0.62176479  0.28616670     1.39100
O418        O  0.95439165  0.58718481  0.27991267    -1.21820
O419        O  0.95330207  0.15425343  0.29903116    -0.84080
O420        O  0.93560910  0.14883639  0.21116572    -0.81120
C421        C  0.94560376  0.15406863  0.17294743     0.99390
O422        O  0.98257911  0.14507468  0.16310670    -0.81160
O423        O  0.06405194  0.16161793  0.18577843    -0.83800
C424        C  0.06676211  0.19998833  0.19838843     1.03910
O425        O  0.05751070  0.21016907  0.23385246    -0.76560
O426        O  0.01040959  0.19711379  0.30251162    -0.76750
C427        C  0.97196859  0.18808420  0.31071171     1.03860
O428        O  0.00933698  0.07691904  0.29482898    -0.84070
O429        O  0.92748886  0.07844057  0.26201891    -0.81140
C430        C  0.94027348  0.05648212  0.23282023     0.99410
O431        O  0.97438328  0.06687090  0.21145096    -0.81160
O432        O  0.06226880  0.08243077  0.23220637    -0.83770
C433        C  0.09798106  0.10034805  0.23353208     1.03880
O434        O  0.10219916  0.13599396  0.24991034    -0.76590
O435        O  0.05485011  0.12315584  0.31953650    -0.76740
C436        C  0.04309675  0.08527425  0.31593599     1.03840
Cr437      Cr  0.97259769  0.11590557  0.25586191     1.93740
Cr438      Cr  0.02207947  0.11512874  0.20035411     1.93210
Cr439      Cr  0.05367557  0.16578426  0.27501735     1.39100
O440        O  0.01395625  0.14377740  0.24328591    -1.21820
O441        O  0.90982463  0.79563027  0.52176217    -0.84080
O442        O  0.89747211  0.80951237  0.43785537    -0.81120
C443        C  0.88718337  0.81603526  0.39967580     0.99390
O444        O  0.85139206  0.80384119  0.38695522    -0.81160
O445        O  0.83089337  0.71978546  0.37814815    -0.83800
C446        C  0.86828521  0.70706482  0.38203151     1.03910
O447        O  0.89133550  0.72345550  0.40832725    -0.76560
O448        O  0.92278409  0.73488798  0.48780754    -0.76750
C449        C  0.93471472  0.76681804  0.51027646     1.03860
O450        O  0.83832552  0.74069523  0.53658241    -0.84070
O451        O  0.82704611  0.82149842  0.49783907    -0.81140
C452        C  0.79353021  0.82925291  0.47768605     0.99410
O453        O  0.78487876  0.81173733  0.44429616    -0.81160
O454        O  0.76947518  0.72675216  0.44001764    -0.83770
C455        C  0.77860778  0.68809282  0.43903371     1.03880
O456        O  0.81689022  0.67444934  0.44053317    -0.76590
O457        O  0.85220535  0.67927714  0.51231977    -0.76740
C458        C  0.83634461  0.69946254  0.53994361     1.03840
Cr459      Cr  0.86763603  0.77581844  0.48750013     1.93740
Cr460      Cr  0.80994111  0.76533420  0.41452515     1.93210
Cr461      Cr  0.86993571  0.70457958  0.46053964     1.39100
O462        O  0.83917002  0.74896361  0.45716325    -1.21820
O463        O  0.32605184  0.71661390  0.48758699    -0.84080
O464        O  0.36262325  0.78512331  0.44174490    -0.81120
C465        C  0.34975038  0.82459281  0.44323980     0.99390
O466        O  0.35141447  0.84345181  0.47597916    -0.81160
O467        O  0.35426268  0.85517855  0.55425799    -0.83800
C468        C  0.31641706  0.84178581  0.55065311     1.03910
O469        O  0.30758179  0.80364951  0.55745804    -0.76560
O470        O  0.30692186  0.71989359  0.55138559    -0.76750
C471        C  0.30017942  0.70797586  0.51537999     1.03860
O472        O  0.40615893  0.69385139  0.53395695    -0.84070
O473        O  0.44286234  0.75652670  0.48253864    -0.81140
C474        C  0.44901640  0.78846623  0.45995287     0.99410
O475        O  0.43336040  0.82274983  0.46933519    -0.81160
O476        O  0.44047413  0.81998887  0.55374880    -0.83770
C477        C  0.43002798  0.80237389  0.58684871     1.03880
O478        O  0.39117650  0.80256988  0.59738360    -0.76590
O479        O  0.38711706  0.71999180  0.59226183    -0.76740
C480        C  0.40690657  0.69294746  0.57392293     1.03840
Cr481      Cr  0.38384519  0.73969426  0.48855229     1.93740
Cr482      Cr  0.39432364  0.83146068  0.51547444     1.93210
Cr483      Cr  0.34968366  0.76310419  0.57179032     1.39100
O484        O  0.37500726  0.77718661  0.52461369    -1.21820
O485        O  0.65974799  0.83639116  0.44846124    -0.84080
O486        O  0.65287176  0.74646521  0.43020374    -0.81120
C487        C  0.63451650  0.71130207  0.41769554     0.99390
O488        O  0.59775263  0.70225652  0.42986809    -0.81160
O489        O  0.61953303  0.67217217  0.50410428    -0.83800
C490        C  0.65963519  0.67864595  0.50112658     1.03910
O491        O  0.67701724  0.71446673  0.50719943    -0.76560
O492        O  0.68467938  0.80657213  0.50712670    -0.76750
C493        C  0.68773363  0.83438880  0.47668408     1.03860
O494        O  0.59724602  0.83330607  0.51164696    -0.84070
O495        O  0.57907007  0.80074606  0.43287501    -0.81140
C496        C  0.54242400  0.78453605  0.43747209     0.99410
O497        O  0.53498554  0.75253792  0.46126617    -0.81160
O498        O  0.55115832  0.71862151  0.53770739    -0.83770
C499        C  0.57389970  0.70930229  0.56796931     1.03880
O500        O  0.61405753  0.71446483  0.56827504    -0.76590
O501        O  0.61680057  0.79964600  0.56779854    -0.76740
C502        C  0.59563713  0.82879600  0.55134319     1.03840
Cr503      Cr  0.62693975  0.79172641  0.47042077     1.93740
Cr504      Cr  0.57619322  0.71299994  0.48456263     1.93210
Cr505      Cr  0.64660423  0.75758052  0.53584136     1.39100
O506        O  0.60788638  0.75478831  0.49818037    -1.21820
O507        O  0.15434745  0.70910499  0.52153509    -0.84080
O508        O  0.11016629  0.78092865  0.54006139    -0.81120
C509        C  0.13331849  0.81543674  0.54103091     0.99390
O510        O  0.15611569  0.82593689  0.51093855    -0.81160
O511        O  0.18747889  0.82841190  0.43085802    -0.83800
C512        C  0.21782942  0.80309334  0.42822041     1.03910
O513        O  0.21450251  0.76783993  0.44639068    -0.76560
O514        O  0.18055067  0.68919722  0.46411013    -0.76750
C515        C  0.18394136  0.69336313  0.50227434     1.03860
O516        O  0.08931073  0.68303067  0.45647812    -0.84070
O517        O  0.05111975  0.75636223  0.47500232    -0.81140
C518        C  0.04297329  0.79380561  0.48330668     0.99410
O519        O  0.07183094  0.82210353  0.48242710    -0.81160
O520        O  0.10167566  0.81000398  0.40732023    -0.83770
C521        C  0.12522164  0.80534561  0.37755592     1.03880
O522        O  0.15508184  0.77937118  0.37928734    -0.76590
O523        O  0.11826694  0.70585741  0.39934263    -0.76740
C524        C  0.09151799  0.68234556  0.41710939     1.03840
Cr525      Cr  0.10330219  0.73314956  0.49635884     1.93740
Cr526      Cr  0.12997392  0.81805453  0.45801628     1.93210
Cr527      Cr  0.16534526  0.73667151  0.42503679     1.39100
O528        O  0.13331999  0.76231139  0.46049120    -1.21820
C529        C  0.22468229  0.68735051  0.52393807    -0.15160
C530        C  0.26051737  0.68623770  0.50266610    -0.30330
H531        H  0.22625163  0.69611258  0.55565296     0.13860
H532        H  0.25849451  0.67842277  0.47069497     0.14440
C533        C  0.47005487  0.78450988  0.42095052    -0.15160
C534        C  0.50688705  0.80502973  0.41711353    -0.30330
H535        H  0.46934424  0.75183829  0.41101952     0.13860
H536        H  0.50760059  0.83945194  0.41856295     0.14440
C537        C  0.97948648  0.77175620  0.51778824    -0.15160
C538        C  0.00054332  0.80267806  0.49708188    -0.30330
H539        H  0.99591516  0.74347042  0.52829615     0.13860
H540        H  0.98470332  0.83067153  0.48506303     0.14440
C541        C  0.76025195  0.85468297  0.49550496    -0.15160
C542        C  0.72581597  0.86226211  0.47247615    -0.30330
H543        H  0.75603541  0.84874530  0.52795251     0.13860
H544        H  0.73104475  0.87429966  0.44154523     0.14440
C545        C  0.06144607  0.65863424  0.34788449    -0.15160
C546        C  0.06440106  0.65342360  0.39003749    -0.30330
H547        H  0.07734766  0.68601665  0.33354176     0.13860
H548        H  0.04629531  0.62775364  0.40486415     0.14440
C549        C  0.90886963  0.64247995  0.38705935    -0.15160
C550        C  0.88067539  0.66686725  0.36623299    -0.30330
H551        H  0.91590040  0.64687688  0.41907543     0.13860
H552        H  0.87228053  0.66073661  0.33478314     0.14440
C553        C  0.96703827  0.25920243  0.33315302    -0.15160
C554        C  0.94748480  0.22115625  0.32958549    -0.30330
H555        H  0.00014960  0.26007448  0.34266953     0.13860
H556        H  0.91361880  0.21973499  0.32326437     0.14440
C557        C  0.03305539  0.46718895  0.21668465    -0.15160
C558        C  0.03042831  0.50807191  0.20670517    -0.30330
H559        H  0.04860983  0.46026039  0.24569491     0.13860
H560        H  0.01898757  0.51634229  0.17629297     0.14440
C561        C  0.91715543  0.83745073  0.36810298    -0.15160
C562        C  0.91238185  0.83711252  0.32560002    -0.30330
H563        H  0.94495868  0.85348072  0.38055124     0.13860
H564        H  0.88558525  0.81982383  0.31269370     0.14440
C565        C  0.93389713  0.99001680  0.20004546    -0.15160
C566        C  0.91770239  0.01642600  0.22612672    -0.30330
H567        H  0.94752345  0.00280643  0.17184904     0.13860
H568        H  0.90033774  0.00338413  0.25225862     0.14440
C569        C  0.01482246  0.74288099  0.22608931    -0.15160
C570        C  0.97576683  0.72873644  0.21626491    -0.30330
H571        H  0.03921036  0.72106486  0.23626481     0.13860
H572        H  0.94978332  0.75020335  0.21054725     0.14440
C573        C  0.10231176  0.87174868  0.35341186    -0.15160
C574        C  0.12046900  0.83506682  0.34424845    -0.30330
H575        H  0.10678302  0.88585826  0.38299343     0.13860
H576        H  0.11881391  0.82233560  0.31388746     0.14440
C577        C  0.15720677  0.90608045  0.14417346    -0.15160
C578        C  0.11274909  0.90390095  0.14077641    -0.30330
H579        H  0.17272025  0.88678577  0.16745867     0.13860
H580        H  0.09808120  0.92290754  0.11672400     0.14440
C581        C  0.11742929  0.07278465  0.16872967    -0.15160
C582        C  0.12957854  0.08693754  0.20562910    -0.30330
H583        H  0.08446242  0.07273750  0.15885267     0.13860
H584        H  0.16269748  0.09016450  0.21457507     0.14440
C585        C  0.13398024  0.89001052  0.56613495    -0.15160
C586        C  0.13091843  0.84701685  0.57462823    -0.30330
H587        H  0.13333271  0.90029677  0.53439311     0.13860
H588        H  0.12995364  0.83519567  0.60594400     0.14440
C589        C  0.24565314  0.86584191  0.55169788    -0.15160
C590        C  0.28254333  0.86641119  0.53244514    -0.30330
H591        H  0.21747118  0.87571981  0.53530717     0.13860
H592        H  0.28397562  0.87612427  0.50055316     0.14440
C593        C  0.32808463  0.89644218  0.41172252    -0.15160
C594        C  0.33460832  0.85288654  0.40780971    -0.30330
H595        H  0.33698958  0.91131969  0.43998731     0.13860
H596        H  0.32793185  0.83823755  0.37898086     0.14440
C597        C  0.11496209  0.05993355  0.34343719    -0.15160
C598        C  0.07295176  0.05128081  0.33274850    -0.30330
H599        H  0.12604475  0.09281985  0.34259972     0.13860
H600        H  0.06190933  0.01842516  0.33204584     0.14440
C601        C  0.30168208  0.01456705  0.22543607    -0.15160
C602        C  0.29406008  0.03748560  0.25770533    -0.30330
H603        H  0.31341328  0.98254145  0.22987725     0.13860
H604        H  0.28081056  0.06886868  0.25352164     0.14440
C605        C  0.20703089  0.95827960  0.48549678    -0.15160
C606        C  0.24480442  0.97155368  0.50115364    -0.30330
H607        H  0.18136401  0.94680403  0.50475009     0.13860
H608        H  0.27159803  0.98019616  0.48180134     0.14440
C609        C  0.24811176  0.80582306  0.39396368    -0.15160
C610        C  0.24159817  0.82342873  0.35627800    -0.30330
H611        H  0.27322472  0.78281572  0.39613654     0.13860
H612        H  0.26317044  0.81417032  0.33269703     0.14440
C613        C  0.15506637  0.98222624  0.24030708    -0.15160
C614        C  0.11295230  0.98555366  0.23571689    -0.30330
H615        H  0.17457422  0.00420515  0.22220944     0.13860
H616        H  0.10059072  0.00870485  0.21445932     0.14440
C617        C  0.30224629  0.98728496  0.96988956    -0.15160
C618        C  0.26413276  0.97004033  0.98185362    -0.30330
H619        H  0.32804972  0.99251692  0.99134584     0.13860
H620        H  0.23942156  0.96418086  0.95929723     0.14440
C621        C  0.16711979  0.97512411  0.77331033    -0.15160
C622        C  0.15984567  0.99460635  0.73718784    -0.30330
H623        H  0.17009091  0.94080146  0.77503738     0.13860
H624        H  0.15569410  0.02875908  0.73520462     0.14440
C625        C  0.85733333  0.57311292  0.17628029    -0.15160
C626        C  0.81302052  0.57626563  0.17695926    -0.30330
H627        H  0.87075876  0.55241255  0.15420216     0.13860
H628        H  0.79934918  0.59782472  0.19807491     0.14440
C629        C  0.80788486  0.42413730  0.23621192    -0.15160
C630        C  0.84764141  0.43051111  0.22454311    -0.30330
H631        H  0.79884752  0.39483274  0.25228927     0.13860
H632        H  0.85575487  0.46121603  0.21046064     0.14440
C633        C  0.81726771  0.62835998  0.57718045    -0.15160
C634        C  0.81202492  0.67216250  0.57172406    -0.30330
H635        H  0.84577616  0.61449000  0.56563046     0.13860
H636        H  0.78458383  0.68635668  0.58507709     0.14440
C637        C  0.66848227  0.60548893  0.49067687    -0.15160
C638        C  0.68669244  0.64351981  0.49361444    -0.30330
H639        H  0.63718154  0.60204139  0.47738675     0.13860
H640        H  0.71873398  0.64619503  0.50597021     0.14440
C641        C  0.65466491  0.67780091  0.39027690    -0.15160
C642        C  0.64732129  0.63346283  0.39416127    -0.30330
H643        H  0.67604675  0.69001191  0.36702906     0.13860
H644        H  0.62439506  0.62283667  0.41657197     0.14440
C645        C  0.86708081  0.42330625  0.33097769    -0.15160
C646        C  0.82268375  0.42175036  0.33206898    -0.30330
H647        H  0.88380266  0.45003626  0.34424998     0.13860
H648        H  0.80595981  0.39373684  0.32138997     0.14440
C649        C  0.63680266  0.47048432  0.27122862    -0.15160
C650        C  0.62273242  0.48327436  0.23466562    -0.30330
H651        H  0.64417892  0.43716817  0.27594979     0.13860
H652        H  0.61148749  0.51564436  0.23259452     0.14440
C653        C  0.76285100  0.47360979  0.49991517    -0.15160
C654        C  0.73622412  0.46268824  0.47023714    -0.30330
H655        H  0.79087825  0.49320668  0.49323514     0.13860
H656        H  0.70864477  0.44261438  0.47764319     0.14440
C657        C  0.74996965  0.66552296  0.38003484    -0.15160
C658        C  0.74777429  0.66218379  0.42064747    -0.30330
H659        H  0.75599219  0.69570371  0.36399770     0.13860
H660        H  0.74144150  0.63185092  0.43613844     0.14440
C661        C  0.83031610  0.52694069  0.26035148    -0.15160
C662        C  0.86729214  0.51379696  0.27565139    -0.30330
H663        H  0.81731723  0.51127215  0.23416211     0.13860
H664        H  0.88355952  0.48898670  0.26099310     0.14440
C665        C  0.76524952  0.52989123  0.98608079    -0.15160
C666        C  0.73203558  0.53026085  0.01027101    -0.30330
H667        H  0.79679429  0.52435929  0.99844335     0.13860
H668        H  0.70056306  0.53712319  0.99841925     0.14440
C669        C  0.78453222  0.51910215  0.73404175    -0.15160
C670        C  0.76294051  0.55502736  0.72506390    -0.30330
H671        H  0.79050413  0.49697919  0.71005136     0.13860
H672        H  0.75572675  0.57763522  0.74819022     0.14440
C673        C  0.16563910  0.11169366  0.91961233    -0.15160
C674        C  0.15802528  0.15524767  0.91588143    -0.30330
H675        H  0.15863238  0.09583736  0.94861204     0.13860
H676        H  0.16300924  0.17150109  0.88671472     0.14440
C677        C  0.05530834  0.32813694  0.10809876    -0.15160
C678        C  0.06130052  0.33147040  0.15054694    -0.30330
H679        H  0.02455138  0.33600778  0.09536441     0.13860
H680        H  0.09227830  0.32539650  0.16369934     0.14440
C681        C  0.23790370  0.12447082  0.02669439    -0.15160
C682        C  0.24202328  0.16554140  0.03492216    -0.30330
H683        H  0.26198491  0.11004487  0.00886987     0.13860
H684        H  0.26827555  0.18358362  0.02297023     0.14440
C685        C  0.07071549  0.22405252  0.13306538    -0.15160
C686        C  0.08187617  0.23235337  0.17058988    -0.30330
H687        H  0.03909645  0.21083127  0.12765788     0.13860
H688        H  0.11272046  0.24659804  0.17753344     0.14440
C689        C  0.34186897  0.12054211  0.06861692    -0.15160
C690        C  0.33433091  0.16451029  0.06797768    -0.30330
H691        H  0.36693799  0.10880830  0.04988052     0.13860
H692        H  0.30907042  0.17537034  0.08700032     0.14440
C693        C  0.25213182  0.34266925  0.99695748    -0.15160
C694        C  0.21560374  0.33619762  0.97691882    -0.30330
H695        H  0.25124197  0.35179985  0.02856738     0.13860
H696        H  0.21667486  0.33076685  0.94443164     0.14440
C697        C  0.27034151  0.14888774  0.89621446    -0.15160
C698        C  0.27856204  0.13693583  0.93510348    -0.30330
H699        H  0.26132441  0.18117780  0.88826435     0.13860
H700        H  0.28444614  0.10381693  0.94232371     0.14440
C701        C  0.63441114  0.35029927  0.05929011    -0.15160
C702        C  0.63547849  0.39471461  0.05924824    -0.30330
H703        H  0.63798580  0.33307209  0.08813699     0.13860
H704        H  0.62947034  0.41227739  0.03100736     0.14440
C705        C  0.51305652  0.29840001  0.99345938    -0.15160
C706        C  0.47497683  0.31057086  0.98194565    -0.30330
H707        H  0.51474106  0.27355344  0.01709813     0.13860
H708        H  0.47195937  0.33375238  0.95703891     0.14440
C709        C  0.76307353  0.32905564  0.94635515    -0.15160
C710        C  0.77297002  0.37022412  0.94401813    -0.30330
H711        H  0.78307850  0.30853371  0.96481231     0.13860
H712        H  0.79907327  0.38244494  0.96231916     0.14440
C713        C  0.86311061  0.36285718  0.90080296    -0.15160
C714        C  0.86788886  0.40715897  0.89930370    -0.30330
H715        H  0.84236650  0.34797562  0.87862418     0.13860
H716        H  0.88789327  0.42240672  0.92183603     0.14440
C717        C  0.92553281  0.17287803  0.09733721    -0.15160
C718        C  0.91573407  0.17090747  0.13883952    -0.30330
H719        H  0.95536021  0.15969938  0.08822402     0.13860
H720        H  0.88617667  0.18433435  0.14835940     0.14440
C721        C  0.99843160  0.22218058  0.94138080    -0.15160
C722        C  0.00897185  0.18885219  0.96566748    -0.30330
H723        H  0.02336375  0.24510016  0.93282486     0.13860
H724        H  0.98488970  0.16571849  0.97570394     0.14440
C725        C  0.76652294  0.20173034  0.97670559    -0.15160
C726        C  0.73097505  0.19863610  0.99910030    -0.30330
H727        H  0.76540656  0.19460791  0.94458675     0.13860
H728        H  0.73289492  0.20563338  0.03125900     0.14440
C729        C  0.83901529  0.38388127  0.08274457    -0.15160
C730        C  0.81199793  0.36299489  0.10832797    -0.30330
H731        H  0.83707396  0.41782309  0.07639737     0.13860
H732        H  0.81533684  0.32934750  0.11567314     0.14440
C733        C  0.95789000  0.26294589  0.12127055    -0.15160
C734        C  0.94480349  0.25892500  0.15951164    -0.30330
H735        H  0.98534716  0.24582129  0.11228604     0.13860
H736        H  0.96283679  0.23879821  0.18029182     0.14440
C737        C  0.61321975  0.56782967  0.83065673    -0.15160
C738        C  0.65673896  0.57723134  0.83182321    -0.30330
H739        H  0.60150791  0.53820515  0.84454535     0.13860
H740        H  0.66854704  0.60672842  0.81778036     0.14440
C741        C  0.42980402  0.66353049  0.64573646    -0.15160
C742        C  0.43097946  0.66169893  0.60284385    -0.30330
H743        H  0.41005953  0.68727479  0.65878095     0.13860
H744        H  0.45080414  0.63840409  0.58918179     0.14440
C745        C  0.61452447  0.51599244  0.69716502    -0.15160
C746        C  0.59883694  0.51597544  0.65886885    -0.30330
H747        H  0.64867200  0.51459718  0.70101740     0.13860
H748        H  0.56495772  0.51166366  0.65368975     0.14440
C749        C  0.56960759  0.64730366  0.60733451    -0.15160
C750        C  0.55506421  0.68594091  0.60048592    -0.30330
H751        H  0.58685615  0.63030537  0.58462839     0.13860
H752        H  0.53692107  0.70258496  0.62276143     0.14440
C753        C  0.59302913  0.41853845  0.66095236    -0.15160
C754        C  0.63738488  0.41945264  0.66570114    -0.30330
H755        H  0.57953989  0.43172301  0.63302391     0.13860
H756        H  0.65140819  0.40576849  0.69316049     0.14440
C757        C  0.37034255  0.34310738  0.82054601    -0.15160
C758        C  0.37827201  0.34719527  0.86187225    -0.30330
H759        H  0.34199910  0.32630937  0.81025251     0.13860
H760        H  0.40633817  0.36522997  0.87107713     0.14440
C761        C  0.41934159  0.48957577  0.76578745    -0.15160
C762        C  0.42784611  0.52134594  0.79078829    -0.30330
H763        H  0.41057949  0.49854219  0.73466660     0.13860
H764        H  0.43477060  0.51413739  0.82261604     0.14440
C765        C  0.59796292  0.43082401  0.83420393    -0.15160
C766        C  0.63201230  0.42941528  0.81111084    -0.30330
H767        H  0.59898132  0.44075001  0.86559165     0.13860
H768        H  0.62975781  0.42130324  0.77919842     0.14440
C769        C  0.55896001  0.27037329  0.83855252    -0.15160
C770        C  0.59834662  0.28136500  0.82578228    -0.30330
H771        H  0.55411767  0.26217362  0.87051359     0.13860
H772        H  0.60435840  0.29032742  0.79415128     0.14440
C773        C  0.56669708  0.16335164  0.82398160    -0.15160
C774        C  0.57010949  0.15880897  0.86636979    -0.30330
H775        H  0.58299834  0.19036420  0.80951317     0.13860
H776        H  0.55184057  0.13338470  0.88138835     0.14440
C777        C  0.36713009  0.06675041  0.65311737    -0.15160
C778        C  0.32330293  0.06470641  0.65766217    -0.30330
H779        H  0.38147056  0.04705783  0.63071594     0.13860
H780        H  0.30947207  0.08559892  0.67935129     0.14440
C781        C  0.48976798  0.25992140  0.68021270    -0.15160
C782        C  0.45561886  0.23647337  0.69103983    -0.30330
H783        H  0.51837430  0.24462223  0.67052120     0.13860
H784        H  0.42800873  0.25163709  0.70317368     0.14440
C785        C  0.42176824  0.13093117  0.86944124    -0.15160
C786        C  0.39112232  0.15753556  0.85680002    -0.30330
H787        H  0.43250315  0.12862830  0.90089470     0.13860
H788        H  0.37873000  0.15764867  0.82582564     0.14440
C789        C  0.32926376  0.02355352  0.74360154    -0.15160
C790        C  0.36995967  0.01111038  0.74726832    -0.30330
H791        H  0.30936278  0.00643943  0.72227609     0.13860
H792        H  0.38013117  0.98700569  0.72685249     0.14440
C793        C  0.40259526  0.93268650  0.82984095    -0.15160
C794        C  0.35977650  0.92466306  0.84018940    -0.30330
H795        H  0.41536940  0.96447157  0.83423838     0.13860
H796        H  0.34688432  0.89257543  0.83796123     0.14440
C797        C  0.57021862  0.85463856  0.62209755    -0.15160
C798        C  0.56642105  0.85346447  0.57962805    -0.30330
H799        H  0.59934027  0.84329076  0.63590248     0.13860
H800        H  0.53840521  0.86703019  0.56557464     0.14440
C801        C  0.53701179  0.98069688  0.67759570    -0.15160
C802        C  0.54022358  0.02259321  0.67159452    -0.30330
H803        H  0.55896353  0.96906966  0.70079110     0.13860
H804        H  0.53147054  0.03492202  0.64158325     0.14440
C805        C  0.53937766  0.77521218  0.78385947    -0.15160
C806        C  0.51907057  0.73875900  0.79359407    -0.30330
H807        H  0.57023405  0.77477239  0.76942959     0.13860
H808        H  0.48852290  0.73939553  0.80864862     0.14440
C809        C  0.34471910  0.90901011  0.74156555    -0.15160
C810        C  0.30303063  0.90548029  0.73997915    -0.30330
H811        H  0.35888603  0.92652050  0.76536572     0.13860
H812        H  0.28435216  0.91645184  0.76503160     0.14440
C813        C  0.46016692  0.76573795  0.64754931    -0.15160
C814        C  0.46082494  0.77483110  0.60772275    -0.30330
H815        H  0.48180465  0.74220032  0.65975062     0.13860
H816        H  0.48335980  0.75874303  0.58908008     0.14440
loop_ 
_geom_bond_atom_site_label_1 
_geom_bond_atom_site_label_2 
_geom_bond_distance 
_geom_bond_site_symmetry_2 
_ccdc_geom_bond_type 
O1          Cr19   1.964       .  S
O1            C9   1.249       .  A
O2          Cr19   2.163       .  S
O2            C3   1.314       .  A
C3            O4   1.264       .  A
C3          C797   1.552       .  S
O4          Cr20   1.978       .  S
O5          Cr20   1.980       .  S
O5            C6   1.264       .  A
C6            O7   1.247       .  A
C6          C813   1.462       .  S
O7          Cr21   1.959       .  S
O8          Cr21   1.977       .  S
O8            C9   1.258       .  A
C9          C805   1.467       .  S
O10         Cr19   2.142       .  S
O10          C18   1.308       .  A
O11         Cr19   1.937       .  S
O11          C12   1.240       .  A
C12          O13   1.251       .  A
C12         C801   1.482       .  S
O13         Cr20   2.029       .  S
O14         Cr20   1.990       .  S
O14          C15   1.266       .  A
C15          O16   1.263       .  A
C15         C809   1.463       .  S
O16         Cr21   1.990       .  S
O17         Cr21   1.953       .  S
O17          C18   1.249       .  A
C18         C793   1.550       .  S
Cr19         O22   1.730       .  S
Cr20         O22   1.803       .  S
Cr21         O22   1.814       .  S
O23         Cr41   1.854       .  S
O23          C31   1.280       .  A
O24         Cr41   2.111       .  S
O24          C25   1.300       .  A
C25          O26   1.271       .  A
C25         C773   1.550       .  S
O26         Cr42   2.017       .  S
O27         Cr42   2.030       .  S
O27          C28   1.270       .  A
C28          O29   1.248       .  A
C28         C785   1.437       .  S
O29         Cr43   1.925       .  S
O30         Cr43   2.109       .  S
O30          C31   1.307       .  A
C31         C782   1.456       .  S
O32         Cr41   2.117       .  S
O32          C40   1.297       .  A
O33         Cr41   1.961       .  S
O33          C34   1.265       .  A
C34          O35   1.278       .  A
C34         C802   1.470       .  S
O35         Cr42   1.996       .  S
O36         Cr42   1.992       .  S
O36          C37   1.269       .  A
C37          O38   1.266       .  A
C37         C790   1.478       .  S
O38         Cr43   1.983       .  S
O39         Cr43   1.973       .  S
O39          C40   1.254       .  A
C40         C777   1.537       .  S
Cr41         O44   1.592       .  S
Cr42         O44   1.749       .  S
Cr43         O44   1.716       .  S
O45         Cr63   1.964       .  S
O45          C53   1.256       .  A
O46         Cr63   2.149       .  S
O46          C47   1.297       .  A
C47          O48   1.230       .  A
C47         C757   1.506       .  S
O48         Cr64   1.903       .  S
O49         Cr64   2.012       .  S
O49          C50   1.266       .  A
C50          O51   1.241       .  A
C50         C769   1.435       .  S
O51         Cr65   1.949       .  S
O52         Cr65   1.994       .  S
O52          C53   1.256       .  A
C53         C781   1.458       .  S
O54         Cr63   2.153       .  S
O54          C62   1.311       .  A
O55         Cr63   1.949       .  S
O55          C56   1.260       .  A
C56          O57   1.272       .  A
C56         C761   1.468       .  S
O57         Cr64   2.045       .  S
O58         Cr64   1.927       .  S
O58          C59   1.250       .  A
C59          O60   1.271       .  A
C59         C765   1.420       .  S
O60         Cr65   1.986       .  S
O61         Cr65   1.941       .  S
O61          C62   1.249       .  A
C62         C753   1.530       .  S
Cr63         O66   1.733       .  S
Cr64         O66   1.769       .  S
Cr65         O66   1.745       .  S
O67         Cr85   1.968       .  S
O67          C75   1.267       .  A
O68         Cr85   2.140       .  S
O68          C69   1.311       .  A
C69          O70   1.255       .  A
C69         C741   1.552       .  S
O70         Cr86   1.983       .  S
O71         Cr86   1.971       .  S
O71          C72   1.261       .  A
C72          O73   1.266       .  A
C72         C749   1.416       .  S
O73         Cr87   1.925       .  S
O74         Cr87   2.003       .  S
O74          C75   1.280       .  A
C75         C806   1.463       .  S
O76         Cr85   2.117       .  S
O76          C84   1.300       .  A
O77         Cr85   1.879       .  S
O77          C78   1.277       .  A
C78          O79   1.306       .  A
C78         C762   1.469       .  S
O79         Cr86   2.097       .  S
O80         Cr86   1.942       .  S
O80          C81   1.248       .  A
C81          O82   1.281       .  A
C81         C745   1.443       .  S
O82         Cr87   2.028       .  S
O83         Cr87   1.952       .  S
O83          C84   1.248       .  A
C84         C737   1.526       .  S
Cr85         O88   1.580       .  S
Cr86         O88   1.736       .  S
Cr87         O88   1.723       .  S
O89        Cr107   1.844       .  S
O89          C97   1.280       .  A
O90        Cr107   2.116   1_554  S
O90          C91   1.300       .  A
C91          O92   1.261       .  A
C91         C717   1.548       .  S
O92        Cr108   1.995       .  S
O93        Cr108   1.997       .  S
O93          C94   1.273       .  A
C94          O95   1.254       .  A
C94         C733   1.450       .  S
O95        Cr109   1.937       .  S
O96        Cr109   2.134   1_556  S
O96          C97   1.317       .  A
C97         C721   1.452       .  S
O98        Cr107   2.118       .  S
O98         C106   1.304       .  A
O99        Cr107   2.003       .  S
O99         C100   1.272       .  A
C100        O101   1.272   1_556  A
C100        C725   1.480       .  S
O101       Cr108   1.987       .  S
O102       Cr108   1.932       .  S
O102        C103   1.259       .  A
C103        O104   1.275       .  A
C103        C729   1.439       .  S
O104       Cr109   2.026       .  S
O105       Cr109   1.972   1_556  S
O105        C106   1.255       .  A
C106        C713   1.532       .  S
Cr107       O110   1.584   1_556  S
Cr108       O110   1.708       .  S
Cr109       O110   1.745       .  S
O111       Cr129   1.931       .  S
O111        C119   1.244       .  A
O112       Cr129   2.135       .  S
O112        C113   1.302       .  A
C113        O114   1.253       .  A
C113        C774   1.554       .  S
O114       Cr130   1.979       .  S
O115       Cr130   1.977       .  S
O115        C116   1.259       .  A
C116        O117   1.256       .  A
C116        C770   1.454       .  S
O117       Cr131   1.938       .  S
O118       Cr131   2.036       .  S
O118        C119   1.264       .  A
C119        C705   1.456       .  S
O120       Cr129   2.141   1_554  S
O120        C128   1.302       .  A
O121       Cr129   1.979       .  S
O121        C122   1.256       .  A
C122        O123   1.262       .  A
C122        C726   1.477       .  S
O123       Cr130   1.990       .  S
O124       Cr130   1.946       .  S
O124        C125   1.248       .  A
C125        O126   1.273       .  A
C125        C709   1.467       .  S
O126       Cr131   2.004       .  S
O127       Cr131   1.954       .  S
O127        C128   1.256   1_556  A
C128        C701   1.529       .  S
Cr129       O132   1.745       .  S
Cr130       O132   1.793       .  S
Cr131       O132   1.799       .  S
O133       Cr151   1.855   1_554  S
O133        C141   1.277   1_554  A
O134       Cr151   2.124   1_554  S
O134        C135   1.303       .  A
C135        O136   1.251       .  A
C135        C690   1.548       .  S
O136       Cr152   1.971   1_554  S
O137       Cr152   2.036       .  S
O137        C138   1.283       .  A
C138        O139   1.250       .  A
C138        C698   1.437       .  S
O139       Cr153   1.917       .  S
O140       Cr153   2.131       .  S
O140        C141   1.315       .  A
C141        C693   1.467       .  S
O142       Cr151   2.116       .  S
O142        C150   1.300       .  A
O143       Cr151   1.968   1_554  S
O143        C144   1.266   1_554  A
C144        O145   1.277       .  A
C144        C706   1.460       .  S
O145       Cr152   1.990       .  S
O146       Cr152   1.919       .  S
O146        C147   1.252       .  A
C147        O148   1.269       .  A
C147        C786   1.431       .  S
O148       Cr153   2.014       .  S
O149       Cr153   1.941       .  S
O149        C150   1.251       .  A
C150        C758   1.510       .  S
Cr151       O154   1.583       .  S
Cr152       O154   1.719       .  S
Cr153       O154   1.734       .  S
O155       Cr173   1.942   1_554  S
O155        C163   1.243   1_554  A
O156       Cr173   2.144   1_554  S
O156        C157   1.307       .  A
C157        O158   1.243       .  A
C157        C677   1.545       .  S
O158       Cr174   1.942       .  S
O159       Cr174   1.973       .  S
O159        C160   1.270       .  A
C160        O161   1.254       .  A
C160        C685   1.431       .  S
O161       Cr175   1.922       .  S
O162       Cr175   2.018   1_556  S
O162        C163   1.251       .  A
C163        C722   1.463       .  S
O164       Cr173   2.179       .  S
O164        C172   1.319       .  A
O165       Cr173   1.969       .  S
O165        C166   1.256       .  A
C166        O167   1.260   1_556  A
C166        C694   1.466       .  S
O167       Cr174   1.974       .  S
O168       Cr174   1.958       .  S
O168        C169   1.244       .  A
C169        O170   1.250       .  A
C169        C682   1.446       .  S
O170       Cr175   1.954       .  S
O171       Cr175   1.938   1_556  S
O171        C172   1.256       .  A
C172        C674   1.540       .  S
Cr173       O176   1.718   1_556  S
Cr174       O176   1.807       .  S
Cr175       O176   1.803       .  S
O177       Cr195   1.937       .  S
O177        C185   1.229       .  A
O178       Cr195   2.111       .  S
O178        C179   1.299       .  A
C179        O180   1.243       .  A
C179        C714   1.534       .  S
O180       Cr196   1.928       .  S
O181       Cr196   2.022       .  S
O181        C182   1.284       .  A
C182        O183   1.259       .  A
C182        C710   1.457       .  S
O183       Cr197   1.946       .  S
O184       Cr197   1.981       .  S
O184        C185   1.245       .  A
C185        C665   1.440       .  S
O186       Cr195   2.161       .  S
O186        C194   1.320       .  A
O187       Cr195   1.951       .  S
O187        C188   1.247       .  A
C188        O189   1.262       .  A
C188        C669   1.460       .  S
O189       Cr196   1.987       .  S
O190       Cr196   1.929       .  S
O190        C191   1.236       .  A
C191        O192   1.253       .  A
C191        C766   1.418       .  S
O192       Cr197   1.957       .  S
O193       Cr197   1.934       .  S
O193        C194   1.257       .  A
C194        C738   1.528       .  S
Cr195       O198   1.723       .  S
Cr196       O198   1.779       .  S
Cr197       O198   1.781       .  S
O199       Cr217   1.816       .  S
O199        C207   1.272       .  A
O200       Cr217   2.136       .  S
O200        C201   1.304       .  A
C201        O202   1.263       .  A
C201        C642   1.566       .  S
O202       Cr218   2.008       .  S
O203       Cr218   1.990       .  S
O203        C204   1.267       .  A
C204        O205   1.258       .  A
C204        C657   1.426       .  S
O205       Cr219   1.880       .  S
O206       Cr219   2.164       .  S
O206        C207   1.322       .  A
C207        C654   1.458       .  S
O208       Cr217   2.145       .  S
O208        C216   1.304       .  A
O209       Cr217   1.978       .  S
O209        C210   1.267       .  A
C210        O211   1.279       .  A
C210        C649   1.476       .  S
O211       Cr218   2.001       .  S
O212       Cr218   1.956       .  S
O212        C213   1.265       .  A
C213        O214   1.272       .  A
C213        C661   1.454       .  S
O214       Cr219   1.981       .  S
O215       Cr219   1.933       .  S
O215        C216   1.242       .  A
C216        C646   1.530       .  S
Cr217       O220   1.584       .  S
Cr218       O220   1.756       .  S
Cr219       O220   1.739       .  S
O221       Cr239   1.911       .  S
O221        C229   1.233       .  A
O222       Cr239   2.142       .  S
O222        C223   1.305       .  A
C223        O224   1.234       .  A
C223        C754   1.538       .  S
O224       Cr240   1.902       .  S
O225       Cr240   1.984       .  S
O225        C226   1.270       .  A
C226        O227   1.255       .  A
C226        C746   1.466       .  S
O227       Cr241   1.909       .  S
O228       Cr241   2.060       .  S
O228        C229   1.264       .  A
C229        C670   1.470       .  S
O230       Cr239   2.164       .  S
O230        C238   1.313       .  A
O231       Cr239   1.969       .  S
O231        C232   1.249       .  A
C232        O233   1.260       .  A
C232        C653   1.467       .  S
O233       Cr240   1.977       .  S
O234       Cr240   1.926       .  S
O234        C235   1.243       .  A
C235        O236   1.270       .  A
C235        C637   1.421       .  S
O236       Cr241   1.985       .  S
O237       Cr241   1.931       .  S
O237        C238   1.251       .  A
C238        C633   1.533       .  S
Cr239       O242   1.718       .  S
Cr240       O242   1.788       .  S
Cr241       O242   1.796       .  S
O243       Cr261   1.926       .  S
O243        C251   1.237       .  A
O244       Cr261   2.170       .  S
O244        C245   1.326       .  A
C245        O246   1.255       .  A
C245        C702   1.532       .  S
O246       Cr262   1.907       .  S
O247       Cr262   2.017       .  S
O247        C248   1.248       .  A
C248        O249   1.237       .  A
C248        C730   1.442       .  S
O249       Cr263   1.925       .  S
O250       Cr263   1.958       .  S
O250        C251   1.254       .  A
C251        C666   1.439       .  S
O252       Cr261   2.134       .  S
O252        C260   1.306       .  A
O253       Cr261   1.946       .  S
O253        C254   1.238       .  A
C254        O255   1.248       .  A
C254        C650   1.462       .  S
O255       Cr262   2.002       .  S
O256       Cr262   1.933       .  S
O256        C257   1.260       .  A
C257        O258   1.283       .  A
C257        C629   1.434       .  S
O258       Cr263   1.960       .  S
O259       Cr263   1.965       .  S
O259        C260   1.253       .  A
C260        C626   1.550       .  S
Cr261       O264   1.710       .  S
Cr262       O264   1.822       .  S
Cr263       O264   1.737       .  S
O265       Cr283   1.965   1_565  S
O265        C273   1.260       .  A
O266       Cr283   2.186   1_565  S
O266        C267   1.313       .  A
C267        O268   1.244       .  A
C267        C794   1.545       .  S
O268       Cr284   1.924   1_565  S
O269       Cr284   1.970       .  S
O269        C270   1.255       .  A
C270        O271   1.253       .  A
C270        C789   1.485       .  S
O271       Cr285   1.994       .  S
O272       Cr285   1.981       .  S
O272        C273   1.262   1_545  A
C273        C621   1.459       .  S
O274       Cr283   2.117       .  S
O274        C282   1.299       .  A
O275       Cr283   1.903       .  S
O275        C276   1.230       .  A
C276        O277   1.262       .  A
C276        C617   1.462   1_545  S
O277       Cr284   2.058       .  S
O278       Cr284   1.903       .  S
O278        C279   1.252       .  A
C279        O280   1.268       .  A
C279        C697   1.460       .  S
O280       Cr285   1.979       .  S
O281       Cr285   1.969       .  S
O281        C282   1.250       .  A
C282        C673   1.540       .  S
Cr283       O286   1.718       .  S
Cr284       O286   1.811       .  S
Cr285       O286   1.803       .  S
O287       Cr305   1.877   1_565  S
O287        C295   1.238       .  A
O288       Cr305   2.141   1_565  S
O288        C289   1.315       .  A
C289        O290   1.252       .  A
C289        C593   1.523       .  S
O290       Cr306   1.931       .  S
O291       Cr306   1.989       .  S
O291        C292   1.255       .  A
C292        O293   1.243       .  A
C292        C610   1.483       .  S
O293       Cr307   1.981       .  S
O294       Cr307   2.024       .  S
O294        C295   1.266       .  A
C295        C605   1.464       .  S
O296       Cr305   2.091       .  S
O296        C304   1.293       .  A
O297       Cr305   1.951       .  S
O297        C298   1.235       .  A
C298        O299   1.252   1_545  A
C298        C602   1.462       .  S
O299       Cr306   1.993       .  S
O300       Cr306   1.937       .  S
O300        C301   1.257       .  A
C301        O302   1.288       .  A
C301        C613   1.487       .  S
O302       Cr307   2.033       .  S
O303       Cr307   1.983       .  S
O303        C304   1.257   1_565  A
C304        C597   1.531       .  S
Cr305       O308   1.734   1_545  S
Cr306       O308   1.808       .  S
Cr307       O308   1.768       .  S
O309       Cr327   1.972   1_545  S
O309        C317   1.256   1_545  A
O310       Cr327   2.046       .  S
O310        C311   1.272       .  A
C311        O312   1.253       .  A
C311        C585   1.513       .  S
O312       Cr328   1.968       .  S
O313       Cr328   1.966       .  S
O313        C314   1.239       .  A
C314        O315   1.260       .  A
C314        C589   1.469       .  S
O315       Cr329   1.972       .  S
O316       Cr329   1.943       .  S
O316        C317   1.250       .  A
C317        C606   1.439       .  S
O318       Cr327   2.078   1_545  S
O318        C326   1.290       .  A
O319       Cr327   2.009       .  S
O319        C320   1.267       .  A
C320        O321   1.258       .  A
C320        C622   1.462       .  S
O321       Cr328   1.939       .  S
O322       Cr328   1.980       .  S
O322        C323   1.259       .  A
C323        O324   1.259       .  A
C323        C810   1.433       .  S
O324       Cr329   1.925       .  S
O325       Cr329   2.015   1_545  S
O325        C326   1.262       .  A
C326        C778   1.537       .  S
Cr327       O330   1.761       .  S
Cr328       O330   1.822       .  S
Cr329       O330   1.777       .  S
O331       Cr349   1.907       .  S
O331        C339   1.234       .  A
O332       Cr349   2.176   1_545  S
O332        C333   1.317       .  A
C333        O334   1.243       .  A
C333        C689   1.552       .  S
O334       Cr350   1.914       .  S
O335       Cr350   1.968       .  S
O335        C336   1.265       .  A
C336        O337   1.244       .  A
C336        C681   1.458       .  S
O337       Cr351   1.952       .  S
O338       Cr351   2.024   1_565  S
O338        C339   1.264       .  A
C339        C618   1.462   1_554  S
O340       Cr349   2.171       .  S
O340        C348   1.319       .  A
O341       Cr349   1.925       .  S
O341        C342   1.238   1_565  A
C342        O343   1.257       .  A
C342        C601   1.458       .  S
O343       Cr350   2.004       .  S
O344       Cr350   1.909       .  S
O344        C345   1.245       .  A
C345        O346   1.273       .  A
C345        C581   1.447       .  S
O346       Cr351   2.047       .  S
O347       Cr351   1.920   1_565  S
O347        C348   1.247       .  A
C348        C577   1.546       .  S
Cr349       O352   1.721   1_565  S
Cr350       O352   1.766       .  S
Cr351       O352   1.819       .  S
O353       Cr371   1.927       .  S
O353        C361   1.244   1_655  A
O354       Cr371   2.184       .  S
O354        C355   1.330       .  A
C355        O356   1.262       .  A
C355        C562   1.544       .  S
O356       Cr372   1.938   1_655  S
O357       Cr372   2.000       .  S
O357        C358   1.243       .  A
C358        O359   1.234       .  A
C358        C573   1.429       .  S
O359       Cr373   1.921       .  S
O360       Cr373   1.964       .  S
O360        C361   1.250       .  A
C361        C569   1.444       .  S
O362       Cr371   2.116   1_455  S
O362        C370   1.303       .  A
O363       Cr371   1.950       .  S
O363        C364   1.232       .  A
C364        O365   1.248       .  A
C364        C565   1.455       .  S
O365       Cr372   1.992   1_655  S
O366       Cr372   1.955       .  S
O366        C367   1.271       .  A
C367        O368   1.271       .  A
C367        C614   1.442       .  S
O368       Cr373   1.980       .  S
O369       Cr373   1.978       .  S
O369        C370   1.256       .  A
C370        C578   1.543       .  S
Cr371       O374   1.704   1_655  S
Cr372       O374   1.803       .  S
Cr373       O374   1.736       .  S
O375       Cr393   1.933       .  S
O375        C383   1.236       .  A
O376       Cr393   2.135       .  S
O376        C377   1.303       .  A
C377        O378   1.243       .  A
C377        C645   1.531       .  S
O378       Cr394   1.926       .  S
O379       Cr394   1.967       .  S
O379        C380   1.268       .  A
C380        O381   1.249       .  A
C380        C630   1.443       .  S
O381       Cr395   1.917       .  S
O382       Cr395   2.047       .  S
O382        C383   1.259       .  A
C383        C557   1.467   1_655  S
O384       Cr393   2.202   1_455  S
O384        C392   1.321       .  A
O385       Cr393   1.974       .  S
O385        C386   1.263       .  A
C386        O387   1.259       .  A
C386        C553   1.463       .  S
O387       Cr394   1.976       .  S
O388       Cr394   1.950       .  S
O388        C389   1.244       .  A
C389        O390   1.267       .  A
C389        C734   1.461       .  S
O390       Cr395   1.978       .  S
O391       Cr395   1.904       .  S
O391        C392   1.240   1_655  A
C392        C678   1.545       .  S
Cr393       O396   1.724       .  S
Cr394       O396   1.814       .  S
Cr395       O396   1.816       .  S
O397       Cr415   1.833       .  S
O397        C405   1.275       .  A
O398       Cr415   2.108   1_455  S
O398        C399   1.295       .  A
C399        O400   1.260       .  A
C399        C545   1.532       .  S
O400       Cr416   1.984   1_455  S
O401       Cr416   2.045       .  S
O401        C402   1.267       .  A
C402        O403   1.239       .  A
C402        C549   1.448       .  S
O403       Cr417   1.927       .  S
O404       Cr417   2.111       .  S
O404        C405   1.308       .  A
C405        C570   1.433       .  S
O406       Cr415   2.118       .  S
O406        C414   1.298       .  A
O407       Cr415   1.953   1_455  S
O407        C408   1.262       .  A
C408        O409   1.286       .  A
C408        C558   1.476       .  S
O409       Cr416   2.026   1_455  S
O410       Cr416   1.937       .  S
O410        C411   1.264       .  A
C411        O412   1.278       .  A
C411        C662   1.449       .  S
O412       Cr417   2.004       .  S
O413       Cr417   1.995       .  S
O413        C414   1.256       .  A
C414        C625   1.550       .  S
Cr415       O418   1.598       .  S
Cr416       O418   1.771       .  S
Cr417       O418   1.722       .  S
O419       Cr437   1.999       .  S
O419        C427   1.273       .  A
O420       Cr437   2.131       .  S
O420        C421   1.303       .  A
C421        O422   1.254       .  A
C421        C718   1.549       .  S
O422       Cr438   1.977   1_655  S
O423       Cr438   2.002       .  S
O423        C424   1.290       .  A
C424        O425   1.257       .  A
C424        C686   1.426       .  S
O425       Cr439   1.920       .  S
O426       Cr439   1.947       .  S
O426        C427   1.269   1_455  A
C427        C554   1.467       .  S
O428       Cr437   2.109   1_455  S
O428        C436   1.293       .  A
O429       Cr437   1.836       .  S
O429        C430   1.273       .  A
C430        O431   1.320       .  A
C430        C566   1.456       .  S
O431       Cr438   2.140   1_655  S
O432       Cr438   1.935       .  S
O432        C433   1.249       .  A
C433        O434   1.263       .  A
C433        C582   1.439       .  S
O434       Cr439   2.010       .  S
O435       Cr439   1.959       .  S
O435        C436   1.250       .  A
C436        C598   1.531       .  S
Cr437       O440   1.606   1_655  S
Cr438       O440   1.722       .  S
Cr439       O440   1.766       .  S
O441       Cr459   1.846       .  S
O441        C449   1.281       .  A
O442       Cr459   2.134       .  S
O442        C443   1.306       .  A
C443        O444   1.257       .  A
C443        C561   1.540       .  S
O444       Cr460   1.971       .  S
O445       Cr460   2.021       .  S
O445        C446   1.259       .  A
C446        O447   1.242       .  A
C446        C550   1.446       .  S
O447       Cr461   1.923       .  S
O448       Cr461   2.109       .  S
O448        C449   1.312       .  A
C449        C537   1.438       .  S
O450       Cr459   2.135       .  S
O450        C458   1.301       .  A
O451       Cr459   1.987       .  S
O451        C452   1.268       .  A
C452        O453   1.268       .  A
C452        C541   1.471       .  S
O453       Cr460   1.968       .  S
O454       Cr460   1.922       .  S
O454        C455   1.260       .  A
C455        O456   1.292       .  A
C455        C658   1.400       .  S
O456       Cr461   2.020       .  S
O457       Cr461   1.940       .  S
O457        C458   1.239       .  A
C458        C634   1.533       .  S
Cr459       O462   1.586       .  S
Cr460       O462   1.744       .  S
Cr461       O462   1.722       .  S
O463       Cr481   1.947       .  S
O463        C471   1.250       .  A
O464       Cr481   2.184       .  S
O464        C465   1.320       .  A
C465        O466   1.245       .  A
C465        C594   1.527       .  S
O466       Cr482   1.905       .  S
O467       Cr482   1.977       .  S
O467        C468   1.263       .  A
C468        O469   1.242       .  A
C468        C590   1.451       .  S
O469       Cr483   1.911       .  S
O470       Cr483   2.019       .  S
O470        C471   1.267       .  A
C471        C530   1.476       .  S
O472       Cr481   2.172       .  S
O472        C480   1.314       .  A
O473       Cr481   1.934       .  S
O473        C474   1.246       .  A
C474        O475   1.246       .  A
C474        C533   1.459       .  S
O475       Cr482   1.991       .  S
O476       Cr482   1.950       .  S
O476        C477   1.250       .  A
C477        O478   1.277       .  A
C477        C814   1.471       .  S
O478       Cr483   1.984       .  S
O479       Cr483   1.924       .  S
O479        C480   1.241       .  A
C480        C742   1.556       .  S
Cr481       O484   1.727       .  S
Cr482       O484   1.819       .  S
Cr483       O484   1.790       .  S
O485       Cr503   1.860       .  S
O485        C493   1.277       .  A
O486       Cr503   2.153       .  S
O486        C487   1.313       .  A
C487        O488   1.254       .  A
C487        C641   1.558       .  S
O488       Cr504   1.969       .  S
O489       Cr504   1.990       .  S
O489        C490   1.281       .  A
C490        O491   1.264       .  A
C490        C638   1.442       .  S
O491       Cr505   1.950       .  S
O492       Cr505   2.136       .  S
O492        C493   1.314       .  A
C493        C542   1.477       .  S
O494       Cr503   2.148       .  S
O494        C502   1.310       .  A
O495       Cr503   1.964       .  S
O495        C496   1.261       .  A
C496        O497   1.277       .  A
C496        C534   1.456       .  S
O497       Cr504   1.958       .  S
O498       Cr504   1.938       .  S
O498        C499   1.254       .  A
C499        O500   1.274       .  A
C499        C750   1.408       .  S
O500       Cr505   1.976       .  S
O501       Cr505   1.975       .  S
O501        C502   1.256       .  A
C502        C798   1.552       .  S
Cr503       O506   1.570       .  S
Cr504       O506   1.703       .  S
Cr505       O506   1.735       .  S
O507       Cr525   1.963       .  S
O507        C515   1.252       .  A
O508       Cr525   2.118       .  S
O508        C509   1.297       .  A
C509        O510   1.260       .  A
C509        C586   1.512       .  S
O510       Cr526   1.940       .  S
O511       Cr526   2.044       .  S
O511        C512   1.266       .  A
C512        O513   1.249       .  A
C512        C609   1.482       .  S
O513       Cr527   1.953       .  S
O514       Cr527   2.008       .  S
O514        C515   1.269       .  A
C515        C529   1.478       .  S
O516       Cr525   2.118       .  S
O516        C524   1.298       .  A
O517       Cr525   1.936       .  S
O517        C518   1.252       .  A
C518        O519   1.259       .  A
C518        C538   1.453       .  S
O519       Cr526   2.016       .  S
O520       Cr526   1.906       .  S
O520        C521   1.248       .  A
C521        O522   1.262       .  A
C521        C574   1.430       .  S
O522       Cr527   2.018       .  S
O523       Cr527   1.955       .  S
O523        C524   1.247       .  A
C524        C546   1.534       .  S
Cr525       O528   1.745       .  S
Cr526       O528   1.762       .  S
Cr527       O528   1.773       .  S
C529        C530   1.336       .  D
C529        H531   1.087       .  S
C530        H532   1.088       .  S
C533        C534   1.322       .  D
C533        H535   1.089       .  S
C534        H536   1.087       .  S
C537        C538   1.339   1_655  D
C537        H539   1.088       .  S
C538        H540   1.087   1_455  S
C541        C542   1.342       .  D
C541        H543   1.087       .  S
C542        H544   1.088       .  S
C545        C546   1.394       .  D
C545        H547   1.086       .  S
C546        H548   1.085       .  S
C549        C550   1.358       .  D
C549        H551   1.086       .  S
C550        H552   1.087       .  S
C553        C554   1.343       .  D
C553        H555   1.088   1_655  S
C554        H556   1.087       .  S
C557        C558   1.324       .  D
C557        H559   1.088       .  S
C558        H560   1.087       .  S
C561        C562   1.405       .  D
C561        H563   1.085       .  S
C562        H564   1.085       .  S
C565        C566   1.326   1_565  D
C565        H567   1.088   1_565  S
C566        H568   1.088       .  S
C569        C570   1.341   1_455  D
C569        H571   1.088       .  S
C570        H572   1.087       .  S
C573        C574   1.345       .  D
C573        H575   1.088       .  S
C574        H576   1.087       .  S
C577        C578   1.406       .  D
C577        H579   1.085       .  S
C578        H580   1.085       .  S
C581        C582   1.354       .  D
C581        H583   1.087       .  S
C582        H584   1.087       .  S
C585        C586   1.377       .  D
C585        H587   1.084       .  S
C586        H588   1.085       .  S
C589        C590   1.329       .  D
C589        H591   1.083       .  S
C590        H592   1.085       .  S
C593        C594   1.402       .  D
C593        H595   1.085       .  S
C594        H596   1.083       .  S
C597        C598   1.391       .  D
C597        H599   1.085       .  S
C598        H600   1.085       .  S
C601        C602   1.327       .  D
C601        H603   1.089   1_545  S
C602        H604   1.087       .  S
C605        C606   1.356       .  D
C605        H607   1.081       .  S
C606        H608   1.087       .  S
C609        C610   1.359       .  D
C609        H611   1.087       .  S
C610        H612   1.087       .  S
C613        C614   1.342       .  D
C613        H615   1.084   1_565  S
C614        H616   1.074   1_565  S
C617        C618   1.364       .  D
C617        H619   1.086       .  S
C618        H620   1.088       .  S
C621        C622   1.342       .  D
C621        H623   1.088       .  S
C622        H624   1.087   1_565  S
C625        C626   1.404       .  D
C625        H627   1.085       .  S
C626        H628   1.084       .  S
C629        C630   1.324       .  D
C629        H631   1.084       .  S
C630        H632   1.086       .  S
C633        C634   1.400       .  D
C633        H635   1.085       .  S
C634        H636   1.085       .  S
C637        C638   1.322       .  D
C637        H639   1.081       .  S
C638        H640   1.089       .  S
C641        C642   1.413       .  D
C641        H643   1.080       .  S
C642        H644   1.078       .  S
C645        C646   1.401       .  D
C645        H647   1.084       .  S
C646        H648   1.084       .  S
C649        C650   1.333       .  D
C649        H651   1.087       .  S
C650        H652   1.088       .  S
C653        C654   1.330       .  D
C653        H655   1.087       .  S
C654        H656   1.089       .  S
C657        C658   1.339       .  D
C657        H659   1.088       .  S
C658        H660   1.085       .  S
C661        C662   1.337       .  D
C661        H663   1.079       .  S
C662        H664   1.073       .  S
C665        C666   1.321   1_556  D
C665        H667   1.088       .  S
C666        H668   1.088   1_554  S
C669        C670   1.359       .  D
C669        H671   1.088       .  S
C670        H672   1.086       .  S
C673        C674   1.401       .  D
C673        H675   1.086       .  S
C674        H676   1.085       .  S
C677        C678   1.414       .  D
C677        H679   1.085       .  S
C678        H680   1.085       .  S
C681        C682   1.333       .  D
C681        H683   1.080       .  S
C682        H684   1.065       .  S
C685        C686   1.313       .  D
C685        H687   1.087       .  S
C686        H688   1.087       .  S
C689        C690   1.411       .  D
C689        H691   1.085       .  S
C690        H692   1.085       .  S
C693        C694   1.337       .  D
C693        H695   1.087   1_556  S
C694        H696   1.088       .  S
C697        C698   1.348       .  D
C697        H699   1.087       .  S
C698        H700   1.083       .  S
C701        C702   1.399       .  D
C701        H703   1.086       .  S
C702        H704   1.085       .  S
C705        C706   1.319       .  D
C705        H707   1.089   1_556  S
C706        H708   1.087       .  S
C709        C710   1.327       .  D
C709        H711   1.084       .  S
C710        H712   1.086       .  S
C713        C714   1.400       .  D
C713        H715   1.085       .  S
C714        H716   1.085       .  S
C717        C718   1.401       .  D
C717        H719   1.085       .  S
C718        H720   1.085       .  S
C721        C722   1.347   1_655  D
C721        H723   1.088   1_655  S
C722        H724   1.087   1_455  S
C725        C726   1.347       .  D
C725        H727   1.086       .  S
C726        H728   1.088   1_556  S
C729        C730   1.349       .  D
C729        H731   1.087       .  S
C730        H732   1.088       .  S
C733        C734   1.328       .  D
C733        H735   1.079       .  S
C734        H736   1.086       .  S
C737        C738   1.398       .  D
C737        H739   1.085       .  S
C738        H740   1.085       .  S
C741        C742   1.414       .  D
C741        H743   1.085       .  S
C742        H744   1.085       .  S
C745        C746   1.350       .  D
C745        H747   1.086       .  S
C746        H748   1.087       .  S
C749        C750   1.324       .  D
C749        H751   1.088       .  S
C750        H752   1.087       .  S
C753        C754   1.407       .  D
C753        H755   1.085       .  S
C754        H756   1.085       .  S
C757        C758   1.389       .  D
C757        H759   1.085       .  S
C758        H760   1.087       .  S
C761        C762   1.335       .  D
C761        H763   1.089       .  S
C762        H764   1.086       .  S
C765        C766   1.323       .  D
C765        H767   1.087       .  S
C766        H768   1.089       .  S
C769        C770   1.349       .  D
C769        H771   1.086       .  S
C770        H772   1.087       .  S
C773        C774   1.401       .  D
C773        H775   1.084       .  S
C774        H776   1.085       .  S
C777        C778   1.392       .  D
C777        H779   1.085       .  S
C778        H780   1.085       .  S
C781        C782   1.337       .  D
C781        H783   1.087       .  S
C782        H784   1.087       .  S
C785        C786   1.350       .  D
C785        H787   1.087       .  S
C786        H788   1.088       .  S
C789        C790   1.355       .  D
C789        H791   1.084       .  S
C790        H792   1.084   1_545  S
C793        C794   1.411       .  D
C793        H795   1.084       .  S
C794        H796   1.085       .  S
C797        C798   1.402       .  D
C797        H799   1.085       .  S
C798        H800   1.085       .  S
C801        C802   1.331   1_565  D
C801        H803   1.088       .  S
C802        H804   1.086       .  S
C805        C806   1.334       .  D
C805        H807   1.087       .  S
C806        H808   1.088       .  S
C809        C810   1.318       .  D
C809        H811   1.061       .  S
C810        H812   1.086       .  S
C813        C814   1.333       .  D
C813        H815   1.086       .  S
C814        H816   1.086       .  S
