geometry optimzed in LAMMPS
_audit_creation_date              2020-11-30 
_audit_creation_method            'lammps2cif' 
_symmetry_space_group_name_H-M    'P1' 
_symmetry_Int_Tables_number       1 
_symmetry_cell_setting            triclinic 
loop_ 
_symmetry_equiv_pos_as_xyz 
  x,y,z 
_cell_length_a                    44.04038515 
_cell_length_b                    44.04232971854137 
_cell_length_c                    44.18550518468117 
_cell_angle_alpha                 90.03688700934323 
_cell_angle_beta                  89.88051075956214 
_cell_angle_gamma                 90.21263654073964 
loop_ 
_atom_site_label 
_atom_site_type_symbol 
_atom_site_fract_x 
_atom_site_fract_y 
_atom_site_fract_z 
_atom_site_charge 
Zn1        Zn  0.17574151  0.17580606  0.16827294     1.49700
Zn2        Zn  0.16969300  0.14791288  0.10263404     1.49400
Zn3        Zn  0.14417553  0.11150081  0.15998459     1.49100
Zn4        Zn  0.10994990  0.17059553  0.13847983     1.49500
O5          O  0.14981370  0.15148860  0.14215245    -1.83800
O6          O  0.21686050  0.18273777  0.14932051    -0.74400
O7          O  0.17908069  0.10429219  0.09381430    -0.74300
O8          O  0.16108844  0.11020108  0.20213511    -0.73800
O9          O  0.21045759  0.16935360  0.10141234    -0.74500
O10         O  0.18120946  0.15574883  0.20893562    -0.74100
O11         O  0.16394373  0.07917727  0.13485384    -0.74600
O12         O  0.07570000  0.14377390  0.15465489    -0.74000
O13         O  0.14251851  0.16333832  0.06943713    -0.74800
O14         O  0.09995682  0.10087488  0.16379402    -0.74200
O15         O  0.10111620  0.17771964  0.09463049    -0.74600
O16         O  0.10986531  0.21224485  0.15788174    -0.74600
O17         O  0.15723205  0.21684254  0.17479016    -0.74300
C18         C  0.22693245  0.18043598  0.12240243     0.77400
C19         C  0.17645151  0.07981438  0.10888463     0.77900
C20         C  0.17439597  0.12946237  0.21900396     0.76900
C21         C  0.07533825  0.11586473  0.16231426     0.77300
C22         C  0.11580461  0.17429652  0.07003961     0.78400
C23         C  0.13109264  0.22796769  0.16973659     0.77500
Zn24       Zn  0.83353732  0.68752735  0.36917404     1.49700
Zn25       Zn  0.87074753  0.66316534  0.31286669     1.49400
Zn26       Zn  0.87104074  0.62644143  0.37497342     1.49100
Zn27       Zn  0.81193104  0.62670804  0.33548400     1.49500
O28         O  0.84668239  0.65109208  0.34806659    -1.83800
O29         O  0.84806780  0.72515649  0.34771186    -0.74400
O30         O  0.91030577  0.64037548  0.31171640    -0.74300
O31         O  0.88428907  0.65064197  0.41106882    -0.73800
O32         O  0.87739581  0.70868214  0.31039421    -0.74500
O33         O  0.85300676  0.69023099  0.41025345    -0.74100
O34         O  0.90764917  0.61137592  0.35275916    -0.74600
O35         O  0.80869098  0.58701824  0.35882421    -0.74000
O36         O  0.84941853  0.65054189  0.27494933    -0.74800
O37         O  0.84811369  0.58980451  0.38997806    -0.74200
O38         O  0.81334644  0.61854851  0.29063149    -0.74600
O39         O  0.77364416  0.65017843  0.34348340    -0.74600
O40         O  0.78772069  0.68992170  0.37088492    -0.74300
C41         C  0.86590824  0.73038824  0.32560461     0.77400
C42         C  0.92062780  0.61903402  0.32816301     0.77900
C43         C  0.87434832  0.67520558  0.42252441     0.76900
C44         C  0.82433966  0.57631472  0.38056167     0.77300
C45         C  0.82837314  0.63146480  0.26959826     0.78400
C46         C  0.76702222  0.67422102  0.35813113     0.77500
C47         C  0.99397373  0.24234195  0.89164576     0.86800
C48         C  0.00936066  0.27322947  0.88690041    -0.53400
C49         C  0.99587352  0.29143316  0.86602843     0.09700
C50         C  0.96734897  0.27716584  0.85171173     0.20700
C51         C  0.96084983  0.25101366  0.89978020    -0.54200
C52         C  0.94709830  0.26931017  0.87904533     0.09800
C53         C  0.99132368  0.22810928  0.86009256    -0.53700
C54         C  0.97744846  0.24606950  0.83908363     0.10400
H55         H  0.02857263  0.28081909  0.90036972     0.14900
H56         H  0.95639547  0.29193902  0.83469366     0.00700
H57         H  0.94858242  0.24414375  0.91984563     0.15200
H58         H  0.99872262  0.20517969  0.85501686     0.15000
C59         C  0.73342146  0.39982235  0.49868928     0.86800
C60         C  0.70144738  0.39045231  0.48773272    -0.53400
C61         C  0.68822609  0.36808582  0.50449343     0.09700
C62         C  0.70807331  0.35642910  0.53045580     0.20700
C63         C  0.72889309  0.40758561  0.53241718    -0.54200
C64         C  0.71593512  0.38486941  0.54929785     0.09800
C65         C  0.75078113  0.36948545  0.49807465    -0.53700
C66         C  0.73812370  0.34713281  0.51545465     0.10400
H67         H  0.68977727  0.39998289  0.46841374     0.14900
H68         H  0.69715171  0.33767304  0.54324101     0.00700
H69         H  0.73441427  0.42977588  0.54138544     0.15200
H70         H  0.77165243  0.36606192  0.48543322     0.15000
C71         C  0.59624987  0.99439989  0.75851642     0.86800
C72         C  0.60822888  0.98118600  0.78832651    -0.53400
C73         C  0.63249139  0.99639516  0.80027587     0.09700
C74         C  0.64223810  0.02425375  0.78167362     0.20700
C75         C  0.58918742  0.02790280  0.76710871    -0.54200
C76         C  0.61329320  0.04323235  0.77922901     0.09800
C77         C  0.62388583  0.99682806  0.73745141    -0.53700
C78         C  0.64769219  0.01262864  0.74937762     0.10400
H79         H  0.59717754  0.96241860  0.79995437     0.14900
H80         H  0.66181249  0.03689903  0.79138157     0.00700
H81         H  0.56756840  0.03915659  0.76476924     0.15200
H82         H  0.62415508  0.98781233  0.71455966     0.15000
Zn83       Zn  0.92513791  0.06247507  0.55674345     1.49700
Zn84       Zn  0.90059093  0.07516137  0.62321649     1.49400
Zn85       Zn  0.91563340  0.13063225  0.57878098     1.49100
Zn86       Zn  0.85833363  0.08751973  0.56522154     1.49500
O87         O  0.89981968  0.08903576  0.58110876    -1.83800
O88         O  0.93735749  0.02535365  0.58020178    -0.74400
O89         O  0.92003529  0.10663126  0.65069238    -0.74300
O90         O  0.95521063  0.13233935  0.55564136    -0.73800
O91         O  0.92270779  0.03488683  0.62718078    -0.74500
O92         O  0.96329049  0.08391210  0.54370084    -0.74100
O93         O  0.92593280  0.14615682  0.62038758    -0.74600
O94         O  0.84470359  0.12968260  0.55446212    -0.74000
O95         O  0.85774282  0.06845157  0.63810087    -0.74800
O96         O  0.88490166  0.15931659  0.56039627    -0.74200
O97         O  0.82886395  0.07170979  0.59689013    -0.74600
O98         O  0.85559645  0.06333234  0.52606142    -0.74600
O99         O  0.90329172  0.04923532  0.51909830    -0.74300
C100        C  0.93551487  0.01756978  0.60792264     0.77400
C101        C  0.92786262  0.13424662  0.64651737     0.77900
C102        C  0.97174204  0.11154700  0.54435707     0.76900
C103        C  0.85718633  0.15570942  0.55279983     0.77300
C104        C  0.83192673  0.06701144  0.62519914     0.78400
C105        C  0.87594476  0.05070341  0.50988885     0.77500
Zn106      Zn  0.68392876  0.36715842  0.83669046     1.49700
Zn107      Zn  0.62443511  0.37312496  0.87564004     1.49400
Zn108      Zn  0.62368749  0.33180822  0.81575037     1.49100
Zn109      Zn  0.65968982  0.31086501  0.87482069     1.49500
O110        O  0.64788881  0.34557630  0.85048276    -1.83800
O111        O  0.68842969  0.40794029  0.85695566    -0.74400
O112        O  0.58805944  0.38681904  0.85285339    -0.74300
O113        O  0.64570963  0.34231943  0.77679866    -0.73800
O114        O  0.64852538  0.41019174  0.88748774    -0.74500
O115        O  0.68431744  0.37170849  0.79141788    -0.74100
O116        O  0.58410175  0.35545712  0.81377541    -0.74600
O117        O  0.64587580  0.27251020  0.85493056    -0.74000
O118        O  0.60988440  0.35265057  0.91361184    -0.74800
O119        O  0.61644014  0.28572117  0.81671948    -0.74200
O120        O  0.63797562  0.31077798  0.91484132    -0.74600
O121        O  0.70527828  0.30801458  0.87971178    -0.74600
O122        O  0.72106366  0.34397905  0.84797815    -0.74300
C123        C  0.67342334  0.42123827  0.87769095     0.77400
C124        C  0.57425183  0.37788725  0.82923736     0.77900
C125        C  0.66837652  0.35936273  0.77077956     0.76900
C126        C  0.62827634  0.26521215  0.83337269     0.77300
C127        C  0.61788074  0.32803787  0.92629049     0.78400
C128        C  0.72646485  0.32186313  0.86562435     0.77500
C129        C  0.24984308  0.89675686  0.99305324     0.86800
C130        C  0.28272018  0.88965655  0.00246067    -0.53400
C131        C  0.29607658  0.86658045  0.98658758     0.09700
C132        C  0.27528531  0.85285643  0.96214113     0.20700
C133        C  0.25273378  0.90305446  0.95865506    -0.54200
C134        C  0.26598480  0.88017305  0.94274680     0.09800
C135        C  0.23275053  0.86637805  0.99470284    -0.53700
C136        C  0.24586804  0.84361741  0.97839787     0.10400
H137        H  0.29452410  0.90200514  0.02021227     0.14900
H138        H  0.28576616  0.83401823  0.94909845     0.00700
H139        H  0.24605681  0.92353596  0.94703811     0.15200
H140        H  0.21130383  0.86350836  0.00657393     0.15000
C141        C  0.39809458  0.49564537  0.74060285     0.86800
C142        C  0.39202653  0.48448435  0.70823661    -0.53400
C143        C  0.37091866  0.50087886  0.69281337     0.09700
C144        C  0.35647325  0.52636673  0.71164346     0.20700
C145        C  0.40495989  0.52984192  0.73774842    -0.54200
C146        C  0.38311610  0.54577965  0.72281400     0.09800
C147        C  0.36629276  0.49466275  0.75556498    -0.53700
C148        C  0.34474489  0.51075720  0.74036179     0.10400
H149        H  0.40446814  0.46593339  0.69783730     0.14900
H150        H  0.33893230  0.53958005  0.69936693     0.00700
H151        H  0.42522946  0.54051078  0.74692183     0.15200
H152        H  0.36047083  0.48351961  0.77655789     0.15000
C153        C  0.99379004  0.75767349  0.59969492     0.86800
C154        C  0.98136287  0.78875150  0.60919709    -0.53400
C155        C  0.99625247  0.80203858  0.63286156     0.09700
C156        C  0.02325887  0.78322331  0.64448311     0.20700
C157        C  0.02767463  0.76469877  0.59273782    -0.54200
C158        C  0.04282700  0.77789393  0.61625785     0.09800
C159        C  0.99481661  0.73851153  0.62857058    -0.53700
C160        C  0.01014708  0.75164730  0.65193609     0.10400
H161        H  0.96312950  0.79999261  0.59710668     0.14900
H162        H  0.03602360  0.79391597  0.66336274     0.00700
H163        H  0.03924257  0.76058345  0.57152706     0.15200
H164        H  0.98534549  0.71573248  0.62994418     0.15000
Zn165      Zn  0.05199411  0.57849597  0.88225262     1.49700
Zn166      Zn  0.08539899  0.60379151  0.94170487     1.49400
Zn167      Zn  0.11056993  0.54403187  0.90938766     1.49100
Zn168      Zn  0.11707690  0.60815028  0.87737242     1.49500
O169        O  0.09102030  0.58338337  0.90284068    -1.83800
O170        O  0.01814451  0.59376453  0.90920379    -0.74400
O171        O  0.09669339  0.57580066  0.97587301    -0.74300
O172        O  0.08287088  0.51104862  0.89461428    -0.73800
O173        O  0.04133561  0.61572817  0.94800730    -0.74500
O174        O  0.04391941  0.53407777  0.87247750    -0.74100
O175        O  0.11856813  0.53601079  0.95400641    -0.74600
O176        O  0.14915148  0.58292234  0.85810804    -0.74000
O177        O  0.11370447  0.64006564  0.94563641    -0.74800
O178        O  0.14928191  0.53999491  0.88462789    -0.74200
O179        O  0.13814697  0.64019896  0.90176047    -0.74600
O180        O  0.09408539  0.62825820  0.84373533    -0.74600
O181        O  0.05009206  0.60390415  0.84395111    -0.74300
C182        C  0.01706560  0.60886037  0.93384549     0.77400
C183        C  0.11062685  0.55057844  0.97766730     0.77900
C184        C  0.05792519  0.50997923  0.88012159     0.76900
C185        C  0.16030500  0.55705219  0.86402884     0.77300
C186        C  0.13431270  0.65074191  0.92827028     0.78400
C187        C  0.06799296  0.62347040  0.83230000     0.77500
C188        C  0.50174395  0.23696143  0.10103875     0.86800
C189        C  0.51505737  0.20599264  0.11018500    -0.53400
C190        C  0.49753299  0.18956825  0.12981928     0.09700
C191        C  0.46819722  0.20614472  0.13929961     0.20700
C192        C  0.46993904  0.22840683  0.08902071    -0.54200
C193        C  0.45210537  0.21290710  0.10913402     0.09800
C194        C  0.49626231  0.25327602  0.13113332    -0.53700
C195        C  0.47863669  0.23747733  0.15112638     0.10400
H196        H  0.53482176  0.19586162  0.09971171     0.14900
H197        H  0.45395852  0.19335357  0.15566682     0.00700
H198        H  0.46189881  0.23473868  0.06669761     0.15200
H199        H  0.50529175  0.27572426  0.13607408     0.15000
C200        C  0.23743198  0.09230531  0.49183850     0.86800
C201        C  0.20403059  0.09737032  0.50124193    -0.53400
C202        C  0.18896636  0.11773971  0.48379513     0.09700
C203        C  0.20828549  0.13164015  0.45851883     0.20700
C204        C  0.23447725  0.08302662  0.45819928    -0.54200
C205        C  0.21971678  0.10390737  0.44061224     0.09800
C206        C  0.25162952  0.12415510  0.49153456    -0.53700
C207        C  0.23676235  0.14474858  0.47389102     0.10400
H208        H  0.19177649  0.08413414  0.51794871     0.14900
H209        H  0.19536459  0.14838170  0.44505500     0.00700
H210        H  0.24223200  0.06133438  0.44965746     0.15200
H211        H  0.27235778  0.12966728  0.50367648     0.15000
C212        C  0.09608616  0.49858017  0.24096546     0.86800
C213        C  0.10613405  0.51103197  0.21005684    -0.53400
C214        C  0.12765886  0.49408282  0.19568698     0.09700
C215        C  0.13835092  0.46654543  0.21414093     0.20700
C216        C  0.08730602  0.46506278  0.23529795    -0.54200
C217        C  0.10931241  0.44856527  0.22105512     0.09800
C218        C  0.12622184  0.49642710  0.25882570    -0.53700
C219        C  0.14791146  0.47931277  0.24502795     0.10400
H220        H  0.09549367  0.53052843  0.19945172     0.14900
H221        H  0.15620777  0.45285635  0.20279275     0.00700
H222        H  0.06585690  0.45516147  0.24250994     0.15200
H223        H  0.13086462  0.50623113  0.28079268     0.15000
Zn224      Zn  0.40562990  0.41535401  0.36491623     1.49700
Zn225      Zn  0.35995317  0.40322104  0.42056939     1.49400
Zn226      Zn  0.41580156  0.35834532  0.40927698     1.49100
Zn227      Zn  0.42715323  0.42544934  0.43264020     1.49500
O228        O  0.40201169  0.40048812  0.40667446    -1.83800
O229        O  0.36402127  0.42459062  0.34828276    -0.74400
O230        O  0.34400653  0.36193329  0.43131113    -0.74300
O231        O  0.42484420  0.34258531  0.36739937    -0.73800
O232        O  0.33290976  0.41975676  0.38771323    -0.74500
O233        O  0.42367505  0.38294435  0.33755891    -0.74100
O234        O  0.38347645  0.33121485  0.42774758    -0.74600
O235        O  0.46451100  0.40285267  0.44522464    -0.74000
O236        O  0.35612910  0.42780919  0.45911142    -0.74800
O237        O  0.45525179  0.35479979  0.43267185    -0.74200
O238        O  0.40431069  0.43888957  0.46966454    -0.74600
O239        O  0.44019448  0.46318539  0.41106661    -0.74600
O240        O  0.42907222  0.45538660  0.36279667    -0.74300
C241        C  0.33755781  0.42582635  0.35987728     0.77400
C242        C  0.35561735  0.33574276  0.43426350     0.77900
C243        C  0.42832797  0.35459432  0.34142596     0.76900
C244        C  0.47232171  0.37505612  0.44434547     0.77300
C245        C  0.37622746  0.43915852  0.47646768     0.78400
C246        C  0.43977320  0.47222803  0.38376592     0.77500
Zn247      Zn  0.31940211  0.81959918  0.67124039     1.49700
Zn248      Zn  0.34875816  0.88467353  0.66531051     1.49400
Zn249      Zn  0.38502296  0.82532604  0.64358162     1.49100
Zn250      Zn  0.32723299  0.84776280  0.60612727     1.49500
O251        O  0.34536233  0.84464878  0.64626680    -1.83800
O252        O  0.31516882  0.83760129  0.71237305    -0.74400
O253        O  0.39236962  0.89306631  0.67558828    -0.74300
O254        O  0.38470062  0.78462856  0.66442926    -0.73800
O255        O  0.32743091  0.88619181  0.70606500    -0.74500
O256        O  0.33649355  0.77795772  0.67681004    -0.74100
O257        O  0.41783163  0.85160113  0.66200782    -0.74600
O258        O  0.35344413  0.82651327  0.57434569    -0.74000
O259        O  0.33375855  0.91775087  0.63718696    -0.74800
O260        O  0.39542594  0.81597224  0.60026357    -0.74200
O261        O  0.32393258  0.89188045  0.59512943    -0.74600
O262        O  0.28333331  0.83234901  0.60621501    -0.74600
O263        O  0.27766858  0.81682476  0.65376359    -0.74300
C264        C  0.31802425  0.86442054  0.72262252     0.77400
C265        C  0.41686567  0.87789814  0.67396547     0.77900
C266        C  0.36348250  0.76789753  0.67475066     0.76900
C267        C  0.38037990  0.81592368  0.57567572     0.77300
C268        C  0.32565472  0.91694100  0.60950499     0.78400
C269        C  0.26666365  0.82262513  0.62782224     0.77500
C270        C  0.89350248  0.00030000  0.24553034     0.86800
C271        C  0.88500799  0.01097558  0.27783077    -0.53400
C272        C  0.86286933  0.99419725  0.29163731     0.09700
C273        C  0.85151234  0.96743872  0.27233610     0.20700
C274        C  0.90247760  0.96686816  0.25075439    -0.54200
C275        C  0.88035411  0.94973445  0.26416132     0.09800
C276        C  0.86298267  0.99911286  0.22868112    -0.53700
C277        C  0.84113730  0.98180567  0.24240242     0.10400
H278        H  0.89658042  0.02853720  0.29047376     0.14900
H279        H  0.83389462  0.95321044  0.28353207     0.00700
H280        H  0.92457149  0.95762590  0.24508554     0.15200
H281        H  0.85904731  0.01069041  0.20736894     0.15000
C282        C  0.49394947  0.73506924  0.39153845     0.86800
C283        C  0.48589647  0.70159306  0.38630307    -0.53400
C284        C  0.49908507  0.68889380  0.36147196     0.09700
C285        C  0.52010514  0.71067790  0.34404428     0.20700
C286        C  0.52923262  0.73486992  0.39265007    -0.54200
C287        C  0.54284165  0.72230612  0.36773921     0.09800
C288        C  0.48708861  0.75123824  0.36156505    -0.53700
C289        C  0.50053704  0.73867992  0.33661041     0.10400
H290        H  0.47156284  0.68856162  0.40158161     0.14900
H291        H  0.53094450  0.69971333  0.32428004     0.00700
H292        H  0.54304901  0.74319414  0.41105952     0.15200
H293        H  0.47401028  0.77205559  0.36053004     0.15000
C294        C  0.75824509  0.59655912  0.99967938     0.86800
C295        C  0.78998053  0.60572463  0.98866495    -0.53400
C296        C  0.80320593  0.62842841  0.00496817     0.09700
C297        C  0.78350029  0.64005334  0.03141208     0.20700
C298        C  0.76397229  0.58843963  0.03345033    -0.54200
C299        C  0.77636918  0.61150737  0.05009757     0.09800
C300        C  0.73981994  0.62602718  0.00079856    -0.53700
C301        C  0.75259672  0.64854869  0.01774072     0.10400
H302        H  0.80174600  0.59404884  0.97044216     0.14900
H303        H  0.79416713  0.65867922  0.04466104     0.00700
H304        H  0.76048653  0.56640686  0.04366061     0.15200
H305        H  0.71770957  0.62836695  0.99019972     0.15000
Zn306      Zn  0.56779282  0.85908984  0.08199005     1.49700
Zn307      Zn  0.58287011  0.91365699  0.12801172     1.49400
Zn308      Zn  0.62504426  0.90302873  0.07096178     1.49100
Zn309      Zn  0.55858865  0.92759013  0.06129666     1.49500
O310        O  0.58343548  0.90075091  0.08568205    -1.83800
O311        O  0.55612017  0.84303342  0.12297658    -0.74400
O312        O  0.62509957  0.92230143  0.14310282    -0.74300
O313        O  0.64090035  0.86107254  0.06422608    -0.73800
O314        O  0.56489748  0.88125135  0.15481940    -0.74500
O315        O  0.60030107  0.83078621  0.06598629    -0.74100
O316        O  0.65315436  0.92264368  0.10119928    -0.74600
O317        O  0.58096965  0.94157780  0.02351167    -0.74000
O318        O  0.55957862  0.95275888  0.13286916    -0.74800
O319        O  0.62774313  0.92500570  0.03119165    -0.74200
O320        O  0.54533949  0.96381139  0.08584106    -0.74600
O321        O  0.52061935  0.90591481  0.04879092    -0.74600
O322        O  0.52852618  0.85714426  0.05806868    -0.74300
C323        C  0.55576514  0.85433172  0.14945907     0.77400
C324        C  0.65022806  0.92680753  0.12956378     0.77900
C325        C  0.62876448  0.83488973  0.06232495     0.76900
C326        C  0.60850047  0.93885619  0.01487901     0.77300
C327        C  0.54667545  0.97023560  0.11392730     0.78400
C328        C  0.51153221  0.87847854  0.04858083     0.77500
C329        C  0.69306804  0.77778439  0.06603900    -0.22100
C330        C  0.68573844  0.75876107  0.04171067     0.09800
C331        C  0.65954735  0.76469522  0.02432088     0.10200
C332        C  0.64117177  0.78957214  0.03176693    -0.17100
C333        C  0.64846576  0.80864657  0.05611379    -0.27500
C334        C  0.67464546  0.80253554  0.07369869     0.18600
C335        C  0.70414097  0.73116427  0.03653529     0.12500
C336        C  0.65118736  0.74496799  0.99771634    -0.11800
H337        H  0.62116508  0.79435111  0.01835630     0.12800
C338        C  0.68317205  0.82055270  0.10151253    -0.22700
H339        H  0.71279683  0.77268915  0.07975512     0.08400
C340        C  0.73322629  0.73215804  0.02308202     0.04800
C341        C  0.74895506  0.70486433  0.01796513    -0.19900
C342        C  0.73595728  0.67673170  0.02560052    -0.12200
C343        C  0.70712766  0.67605857  0.04005253     0.13500
C344        C  0.69177782  0.70327698  0.04533816    -0.22600
C345        C  0.74721435  0.76186351  0.01345811    -0.05700
H346        H  0.77110382  0.70541323  0.00724483     0.15000
C347        C  0.69173953  0.64742212  0.05083695    -0.15900
H348        H  0.66969899  0.70275100  0.05627507     0.09300
H349        H  0.70549358  0.83177290  0.09784174     0.07200
H350        H  0.68501915  0.80498270  0.12118069     0.08400
H351        H  0.66635623  0.83811000  0.10771642     0.07500
H352        H  0.64650111  0.72143288  0.00539295     0.02300
H353        H  0.67017637  0.74473649  0.98114833     0.02800
H354        H  0.63058148  0.75339609  0.98601049     0.06300
H355        H  0.76977144  0.75854794  0.00268854     0.05300
H356        H  0.75028820  0.77682375  0.03344654    -0.00500
H357        H  0.73216829  0.77326584  0.99687624     0.01000
H358        H  0.68746337  0.64901265  0.07556531     0.04700
H359        H  0.70523689  0.62683250  0.04690934     0.06600
H360        H  0.66968737  0.64461872  0.03900245     0.07500
C361        C  0.50475685  0.81109828  0.20376266    -0.22100
C362        C  0.52612361  0.80090641  0.22485167     0.09800
C363        C  0.55727910  0.80701751  0.22025002     0.10200
C364        C  0.56624751  0.82466890  0.19538538    -0.17100
C365        C  0.54483363  0.83555960  0.17469388    -0.27500
C366        C  0.51375569  0.82825991  0.17852196     0.18600
C367        C  0.51546033  0.78564583  0.25271208     0.12500
C368        C  0.58100509  0.79472053  0.24146921    -0.11800
H369        H  0.59008525  0.82990536  0.19196472     0.12800
C370        C  0.48948266  0.83884819  0.15699350    -0.22700
H371        H  0.48087909  0.80620015  0.20738601     0.08400
C372        C  0.51251572  0.80197827  0.27996331     0.04800
C373        C  0.50625395  0.78621914  0.30676655    -0.19900
C374        C  0.50160342  0.75456911  0.30683642    -0.12200
C375        C  0.50127436  0.73885846  0.27883583     0.13500
C376        C  0.50913042  0.75446175  0.25220649    -0.22600
C377        C  0.51626712  0.83602311  0.28076982    -0.05700
H378        H  0.50631926  0.79865770  0.32791150     0.15000
C379        C  0.49190803  0.70605954  0.27601114    -0.15900
H380        H  0.51029177  0.74225719  0.23092148     0.09300
H381        H  0.47267575  0.85284008  0.16947363     0.07200
H382        H  0.47766719  0.81883706  0.14716904     0.08400
H383        H  0.49852287  0.85273378  0.13808515     0.07500
H384        H  0.57964489  0.76954545  0.24187105     0.02300
H385        H  0.57728946  0.80350388  0.26470840     0.02800
H386        H  0.60430454  0.80129075  0.23429905     0.06300
H387        H  0.51276567  0.84527243  0.30389946     0.05300
H388        H  0.49933413  0.84666022  0.26554631    -0.00500
H389        H  0.53940264  0.84257079  0.27319911     0.01000
H390        H  0.47351630  0.70400041  0.25896739     0.04700
H391        H  0.48281426  0.69663879  0.29742799     0.06600
H392        H  0.51157931  0.69226725  0.26849035     0.07500
C393        C  0.75674267  0.96880292  0.22671459    -0.22100
C394        C  0.75800189  0.95680814  0.19734531     0.09800
C395        C  0.78635573  0.95316590  0.18298979     0.10200
C396        C  0.81279164  0.96251089  0.19796876    -0.17100
C397        C  0.81178590  0.97441210  0.22747226    -0.27500
C398        C  0.78326988  0.97775622  0.24199391     0.18600
C399        C  0.72938185  0.94953330  0.18129427     0.12500
C400        C  0.78876217  0.93880023  0.15211282    -0.11800
H401        H  0.83449498  0.96006439  0.18666916     0.12800
C402        C  0.77964076  0.99196294  0.27280308    -0.22700
H403        H  0.73483022  0.97181608  0.23752578     0.08400
C404        C  0.71270527  0.92285283  0.18751710     0.04800
C405        C  0.68644553  0.91651760  0.17068231    -0.19900
C406        C  0.67686535  0.93598638  0.14747845    -0.12200
C407        C  0.69333761  0.96296836  0.14156050     0.13500
C408        C  0.71937966  0.96939734  0.15864408    -0.22600
C409        C  0.72308579  0.90070765  0.21126187    -0.05700
H410        H  0.67375764  0.89583321  0.17507288     0.15000
C411        C  0.68384855  0.98577774  0.11800457    -0.15900
H412        H  0.73217425  0.98999120  0.15412005     0.09300
H413        H  0.77031773  0.97491339  0.28885389     0.07200
H414        H  0.76363053  0.01132362  0.27133168     0.08400
H415        H  0.80112709  0.00103491  0.28202069     0.07500
H416        H  0.77650550  0.95271624  0.13519348     0.02300
H417        H  0.77869460  0.91564894  0.15271826     0.02800
H418        H  0.81275051  0.93676979  0.14459412     0.06300
H419        H  0.70774526  0.88068442  0.21277373     0.05300
H420        H  0.72349952  0.91195487  0.23373809    -0.00500
H421        H  0.74623655  0.89251338  0.20563708     0.01000
H422        H  0.68038125  0.00821372  0.12894147     0.04700
H423        H  0.66240423  0.97960762  0.10644498     0.06600
H424        H  0.70198754  0.98799416  0.10064574     0.07500
C425        C  0.42638636  0.76597898  0.52238327    -0.22100
C426        C  0.42697521  0.78380769  0.49614861     0.09800
C427        C  0.41076171  0.81141293  0.49555360     0.10200
C428        C  0.39487753  0.82087266  0.52154096    -0.17100
C429        C  0.39491644  0.80339893  0.54811946    -0.27500
C430        C  0.41035999  0.77518376  0.54826325     0.18600
C431        C  0.44435995  0.77271113  0.46949107     0.12500
C432        C  0.41088106  0.83123441  0.46779253    -0.11800
H433        H  0.38306717  0.84242286  0.52139071     0.12800
C434        C  0.40964535  0.75359338  0.57475788    -0.22700
H435        H  0.43829170  0.74446376  0.52253305     0.08400
C436        C  0.47629249  0.77327026  0.46881928     0.04800
C437        C  0.49173676  0.76149148  0.44359387    -0.19900
C438        C  0.47623057  0.74878854  0.41855034    -0.12200
C439        C  0.44368655  0.74901199  0.41935516     0.13500
C440        C  0.42852751  0.76074528  0.44484192    -0.22600
C441        C  0.49416482  0.78668923  0.49468877    -0.05700
H442        H  0.51609225  0.76263422  0.44416753     0.15000
C443        C  0.42403993  0.73712793  0.39381552    -0.15900
H444        H  0.40392087  0.76044548  0.44573254     0.09300
H445        H  0.43291366  0.75099770  0.58400731     0.07200
H446        H  0.40137661  0.73102987  0.56704924     0.08400
H447        H  0.39428582  0.76091509  0.59320350     0.07500
H448        H  0.40051946  0.81886209  0.44849899     0.02300
H449        H  0.43458340  0.83761050  0.46190590     0.02800
H450        H  0.39775733  0.85241937  0.47141366     0.06300
H451        H  0.51900548  0.78612319  0.49033764     0.05300
H452        H  0.48967846  0.77369766  0.51574295    -0.00500
H453        H  0.48746145  0.81072365  0.49814020     0.01000
H454        H  0.39947988  0.73980616  0.39887725     0.04700
H455        H  0.42764892  0.71259747  0.39000974     0.06600
H456        H  0.42830700  0.74983465  0.37264546     0.07500
C457        C  0.45801369  0.55685737  0.38902231    -0.22100
C458        C  0.46917891  0.56277384  0.35996697     0.09800
C459        C  0.47183748  0.53885589  0.33896436     0.10200
C460        C  0.46253666  0.50942505  0.34738937    -0.17100
C461        C  0.45096802  0.50336053  0.37652273    -0.27500
C462        C  0.44881192  0.52763318  0.39766373     0.18600
C463        C  0.47771120  0.59452621  0.35270622     0.12500
C464        C  0.48408259  0.54456085  0.30765760    -0.11800
H465        H  0.46427274  0.49109021  0.33111886     0.12800
C466        C  0.43571644  0.52357206  0.42900269    -0.22700
H467        H  0.45618265  0.57549187  0.40497572     0.08400
C468        C  0.45529294  0.61670444  0.34745090     0.04800
C469        C  0.46345341  0.64752174  0.34793096    -0.19900
C470        C  0.49349180  0.65659967  0.35359009    -0.12200
C471        C  0.51631681  0.63428946  0.35640800     0.13500
C472        C  0.50810682  0.60343057  0.35591685    -0.22600
C473        C  0.42262216  0.60782823  0.34242618    -0.05700
H474        H  0.44605253  0.66470262  0.34549984     0.15000
C475        C  0.54887825  0.64279365  0.36227208    -0.15900
H476        H  0.52515431  0.58621840  0.35997382     0.09300
H477        H  0.43410322  0.54544189  0.44143348     0.07200
H478        H  0.45040005  0.50837946  0.44258155     0.08400
H479        H  0.41245124  0.51395941  0.42739979     0.07500
H480        H  0.50764065  0.55348916  0.30913007     0.02300
H481        H  0.46963051  0.56143806  0.29590272     0.02800
H482        H  0.48447260  0.52346136  0.29388583     0.06300
H483        H  0.40812030  0.62795083  0.33815780     0.05300
H484        H  0.41356933  0.59589582  0.36265278    -0.00500
H485        H  0.42100161  0.59254193  0.32249772     0.01000
H486        H  0.56353287  0.62247110  0.36465938     0.04700
H487        H  0.55033294  0.65595923  0.38360800     0.06600
H488        H  0.55789457  0.65646862  0.34317751     0.07500
C489        C  0.28080374  0.43279615  0.29513215    -0.22100
C490        C  0.26009660  0.45346123  0.30752595     0.09800
C491        C  0.26533824  0.46542944  0.33671436     0.10200
C492        C  0.29093166  0.45601808  0.35301093    -0.17100
C493        C  0.31151022  0.43496666  0.34088316    -0.27500
C494        C  0.30631313  0.42310953  0.31145204     0.18600
C495        C  0.23178075  0.46013606  0.29067907     0.12500
C496        C  0.24415609  0.48839015  0.35058150    -0.11800
H497        H  0.29495005  0.46520881  0.37542452     0.12800
C498        C  0.32585250  0.39902472  0.29698678    -0.22700
H499        H  0.27635347  0.42319744  0.27296173     0.08400
C500        C  0.23161710  0.47769300  0.26392827     0.04800
C501        C  0.20398049  0.48275501  0.24887339    -0.19900
C502        C  0.17657820  0.47126568  0.26042319    -0.12200
C503        C  0.17682710  0.45367915  0.28727811     0.13500
C504        C  0.20447494  0.44808977  0.30175259    -0.22600
C505        C  0.26035612  0.49184811  0.25185779    -0.05700
H506        H  0.20359743  0.49644972  0.22849514     0.15000
C507        C  0.14861082  0.44019098  0.30139155    -0.15900
H508        H  0.20473850  0.43425751  0.32205518     0.09300
H509        H  0.33686831  0.40841024  0.27637263     0.07200
H510        H  0.31138957  0.37942842  0.29032295     0.08400
H511        H  0.34362991  0.38996109  0.31206799     0.07500
H512        H  0.22127190  0.47830684  0.35382681     0.02300
H513        H  0.24242845  0.50847915  0.33552480     0.02800
H514        H  0.25231992  0.49624900  0.37303869     0.06300
H515        H  0.25601025  0.50570633  0.23133456     0.05300
H516        H  0.27687799  0.47390700  0.24573035    -0.00500
H517        H  0.27048098  0.50687201  0.26935867     0.01000
H518        H  0.15135496  0.41523181  0.30358289     0.04700
H519        H  0.12776834  0.44417732  0.28807083     0.06600
H520        H  0.14525272  0.45000272  0.32430292     0.07500
C521        C  0.29751797  0.03445602  0.51931170    -0.22100
C522        C  0.28412101  0.02393291  0.54605792     0.09800
C523        C  0.25787988  0.03813325  0.55719766     0.10200
C524        C  0.24425820  0.06111991  0.54016283    -0.17100
C525        C  0.25559209  0.06993593  0.51148966    -0.27500
C526        C  0.28425933  0.05793030  0.50236502     0.18600
C527        C  0.29646041  0.99666661  0.56113109     0.12500
C528        C  0.24392781  0.02860933  0.58693147    -0.11800
H529        H  0.22486900  0.07223738  0.55002618     0.12800
C530        C  0.30204812  0.06908643  0.47531201    -0.22700
H531        H  0.31840669  0.02409033  0.51147291     0.08400
C532        C  0.28572951  0.96758240  0.55325534     0.04800
C533        C  0.29600020  0.94228391  0.56933117    -0.19900
C534        C  0.31663796  0.94519953  0.59344414    -0.12200
C535        C  0.32764028  0.97455778  0.60115126     0.13500
C536        C  0.31741325  0.99992980  0.58474427    -0.22600
C537        C  0.26298955  0.96331489  0.52813247    -0.05700
H538        H  0.28726354  0.92005415  0.56331873     0.15000
C539        C  0.35038494  0.97945941  0.62613549    -0.15900
H540        H  0.32535161  0.02249120  0.59064404     0.09300
H541        H  0.30390206  0.05061724  0.45830256     0.07200
H542        H  0.32525672  0.07570623  0.48264199     0.08400
H543        H  0.29222660  0.08925195  0.46429656     0.07500
H544        H  0.26059992  0.03200237  0.60544870     0.02300
H545        H  0.23732188  0.00427873  0.58599226     0.02800
H546        H  0.22330562  0.04198515  0.59241694     0.06300
H547        H  0.25688639  0.93903679  0.52491993     0.05300
H548        H  0.27263567  0.97194282  0.50654452    -0.00500
H549        H  0.24187132  0.97594695  0.53344618     0.01000
H550        H  0.35757479  0.00361028  0.62773315     0.04700
H551        H  0.37096264  0.96561343  0.62180556     0.06600
H552        H  0.34023876  0.97310239  0.64825685     0.07500
C553        C  0.28898681  0.28744434  0.46340885    -0.22100
C554        C  0.30066072  0.25824898  0.45939180     0.09800
C555        C  0.33079811  0.25455819  0.44929225     0.10200
C556        C  0.34819486  0.28023787  0.44199827    -0.17100
C557        C  0.33633373  0.30976574  0.44464826    -0.27500
C558        C  0.30639186  0.31333850  0.45643223     0.18600
C559        C  0.28053348  0.23164145  0.46390816     0.12500
C560        C  0.34463506  0.22343864  0.44622007    -0.11800
H561        H  0.37107609  0.27702892  0.43356723     0.12800
C562        C  0.29230064  0.34402472  0.46196295    -0.22700
H563        H  0.26585510  0.28990628  0.47145986     0.08400
C564        C  0.27391625  0.22001212  0.49287277     0.04800
C565        C  0.25786075  0.19251953  0.49537371    -0.19900
C566        C  0.24861439  0.17620377  0.46955975    -0.12200
C567        C  0.25423171  0.18879693  0.44049965     0.13500
C568        C  0.26977240  0.21653526  0.43821559    -0.22600
C569        C  0.28482273  0.23596777  0.52099011    -0.05700
H570        H  0.25344947  0.18310436  0.51762287     0.15000
C571        C  0.24635186  0.17247557  0.41159019    -0.15900
H572        H  0.27492992  0.22590379  0.41609291     0.09300
H573        H  0.30695911  0.35759295  0.47733093     0.07200
H574        H  0.26959538  0.34208213  0.47280527     0.08400
H575        H  0.28911621  0.35614783  0.44019909     0.07500
H576        H  0.33197888  0.20989672  0.42919847     0.02300
H577        H  0.34377003  0.21159110  0.46838409     0.02800
H578        H  0.36873460  0.22464278  0.43885054     0.06300
H579        H  0.27815322  0.22350732  0.54183092     0.05300
H580        H  0.27485958  0.25905069  0.52216087    -0.00500
H581        H  0.30996788  0.23786040  0.52053405     0.01000
H582        H  0.25500410  0.18468672  0.39132432     0.04700
H583        H  0.22145531  0.17059328  0.40888894     0.06600
H584        H  0.25691745  0.14977637  0.41162702     0.07500
C585        C  0.49616563  0.03908755  0.12409962    -0.22100
C586        C  0.51697307  0.05975819  0.13658366     0.09800
C587        C  0.54603649  0.04962537  0.14529115     0.10200
C588        C  0.55435131  0.01946966  0.13947439    -0.17100
C589        C  0.53454832  0.99957712  0.12443166    -0.27500
C590        C  0.50472286  0.00909278  0.11762622     0.18600
C591        C  0.51010008  0.09262456  0.13519056     0.12500
C592        C  0.56886995  0.07108067  0.15907063    -0.11800
H593        H  0.57710593  0.01194797  0.14492975     0.12800
C594        C  0.48203796  0.98779582  0.10338863    -0.22700
H595        H  0.47381232  0.04701708  0.11768216     0.08400
C596        C  0.51246382  0.10815853  0.10741000     0.04800
C597        C  0.50814517  0.13952514  0.10674800    -0.19900
C598        C  0.50231664  0.15625682  0.13326546    -0.12200
C599        C  0.50000677  0.14067280  0.16120689     0.13500
C600        C  0.50354352  0.10890106  0.16173012    -0.22600
C601        C  0.52026883  0.09178719  0.07841464    -0.05700
H602        H  0.50906133  0.15105957  0.08510683     0.15000
C603        C  0.49523254  0.15674081  0.19091983    -0.15900
H604        H  0.50214574  0.09686738  0.18308649     0.09300
H605        H  0.45944566  0.99860654  0.10079444     0.07200
H606        H  0.47920809  0.96734812  0.11782697     0.08400
H607        H  0.48994755  0.98088237  0.08057221     0.07500
H608        H  0.55983342  0.08027997  0.18066049     0.02300
H609        H  0.57354340  0.09012283  0.14325323     0.02800
H610        H  0.59071092  0.05957562  0.16397927     0.06300
H611        H  0.52219214  0.10764310  0.05896030     0.05300
H612        H  0.50233826  0.07490926  0.07295222    -0.00500
H613        H  0.54237136  0.08000580  0.08090617     0.01000
H614        H  0.51371223  0.15054016  0.20679330     0.04700
H615        H  0.47314240  0.14964849  0.20084896     0.06600
H616        H  0.49557437  0.18177706  0.18876297     0.07500
C617        C  0.45097061  0.28718572  0.29084901    -0.22100
C618        C  0.45156824  0.30102354  0.26238937     0.09800
C619        C  0.44529514  0.33227145  0.25992224     0.10200
C620        C  0.43835892  0.34900931  0.28606703    -0.17100
C621        C  0.43726113  0.33532987  0.31489311    -0.27500
C622        C  0.44392231  0.30373512  0.31716133     0.18600
C623        C  0.45863943  0.28234367  0.23533328     0.12500
C624        C  0.44605720  0.34800472  0.22964991    -0.11800
H625        H  0.43342859  0.37297371  0.28375280     0.12800
C626        C  0.44373595  0.28685339  0.34686316    -0.22700
H627        H  0.45587432  0.26312933  0.29237514     0.08400
C628        C  0.48876521  0.27468683  0.22767665     0.04800
C629        C  0.49445290  0.25881347  0.20068471    -0.19900
C630        C  0.47069880  0.25034873  0.18122069    -0.12200
C631        C  0.44044072  0.25736877  0.18938102     0.13500
C632        C  0.43480177  0.27313533  0.21645088    -0.22600
C633        C  0.51491723  0.28404484  0.24755241    -0.05700
H634        H  0.51763967  0.25357071  0.19433018     0.15000
C635        C  0.41417187  0.24997176  0.16893864    -0.15900
H636        H  0.41173175  0.27911793  0.22256249     0.09300
H637        H  0.46037990  0.29726831  0.36263611     0.07200
H638        H  0.45012379  0.26263964  0.34401226     0.08400
H639        H  0.42062282  0.28722964  0.35692245     0.07500
H640        H  0.42878152  0.33784664  0.21440919     0.02300
H641        H  0.46889297  0.34547970  0.21927404     0.02800
H642        H  0.44114524  0.37263565  0.23174432     0.06300
H643        H  0.53705098  0.27668274  0.23800836     0.05300
H644        H  0.51233322  0.27362359  0.27028165    -0.00500
H645        H  0.51538913  0.30914561  0.24989156     0.01000
H646        H  0.41205280  0.22505254  0.16617142     0.04700
H647        H  0.41777473  0.26095150  0.14663318     0.06600
H648        H  0.39230936  0.25835357  0.17825413     0.07500
C649        C  0.95304619  0.64579947  0.98025765    -0.22100
C650        C  0.92789175  0.62937044  0.96981020     0.09800
C651        C  0.93184784  0.60731188  0.94703237     0.10200
C652        C  0.96100373  0.60170120  0.93558666    -0.17100
C653        C  0.98668537  0.61746035  0.94638625    -0.27500
C654        C  0.98242814  0.64024622  0.96886025     0.18600
C655        C  0.89753883  0.63435817  0.98355596     0.12500
C656        C  0.90524351  0.58931174  0.93509669    -0.11800
H657        H  0.96371252  0.58431366  0.91844109     0.12800
C658        C  0.00835266  0.65918506  0.98079425    -0.22700
H659        H  0.94966651  0.66278544  0.99769377     0.08400
C660        C  0.88749199  0.61645027  0.00809716     0.04800
C661        C  0.85670904  0.61691538  0.01629179    -0.19900
C662        C  0.83586830  0.63524553  0.00084494    -0.12200
C663        C  0.84633619  0.65475601  0.97767584     0.13500
C664        C  0.87714028  0.65410874  0.96930564    -0.22600
C665        C  0.90896747  0.59571206  0.02458886    -0.05700
H666        H  0.84850526  0.60126502  0.03337515     0.15000
C667        C  0.82533025  0.67539249  0.96050182    -0.15900
H668        H  0.88494681  0.66788547  0.95049427     0.09300
H669        H  0.02463826  0.64462067  0.99318324     0.07200
H670        H  0.00039025  0.67688496  0.99684549     0.08400
H671        H  0.02003215  0.67087502  0.96176840     0.07500
H672        H  0.88827046  0.60492366  0.92509586     0.02300
H673        H  0.89444729  0.57632072  0.95378617     0.02800
H674        H  0.91224884  0.57291264  0.91732283     0.06300
H675        H  0.89739182  0.58324407  0.04319431     0.05300
H676        H  0.92774044  0.60927990  0.03457027    -0.00500
H677        H  0.91859243  0.57877240  0.00865952     0.01000
H678        H  0.83326889  0.69923800  0.96281208     0.04700
H679        H  0.80159749  0.67424922  0.96885387     0.06600
H680        H  0.82541962  0.66905696  0.93617839     0.07500
C681        C  0.14943182  0.51645643  0.04709806    -0.22100
C682        C  0.12580813  0.51804094  0.06831792     0.09800
C683        C  0.09722354  0.52920570  0.05939450     0.10200
C684        C  0.09302972  0.53898962  0.02949894    -0.17100
C685        C  0.11674867  0.53803597  0.00818980    -0.27500
C686        C  0.14544732  0.52658367  0.01717130     0.18600
C687        C  0.13171673  0.50991729  0.10033481     0.12500
C688        C  0.07125603  0.53119362  0.08158693    -0.11800
H689        H  0.07107380  0.54771775  0.02274704     0.12800
C690        C  0.17289218  0.52619733  0.99671021    -0.22700
H691        H  0.17144577  0.50817964  0.05422274     0.08400
C692        C  0.12609112  0.48044161  0.11154942     0.04800
C693        C  0.12766419  0.47517182  0.14287896    -0.19900
C694        C  0.13448296  0.49881882  0.16312943    -0.12200
C695        C  0.14255519  0.52769264  0.15155359     0.13500
C696        C  0.14081971  0.53293447  0.12030002    -0.22600
C697        C  0.11738471  0.45492975  0.09055912    -0.05700
H698        H  0.12169249  0.45298655  0.15170514     0.15000
C699        C  0.15289377  0.55343506  0.17156179    -0.15900
H700        H  0.14571169  0.55541757  0.11151489     0.09300
H701        H  0.18029103  0.50239067  0.99312409     0.07200
H702        H  0.19169574  0.53902316  0.00758286     0.08400
H703        H  0.16900306  0.53677146  0.97438429     0.07500
H704        H  0.07756379  0.54635166  0.10066577     0.02300
H705        H  0.06583644  0.50827279  0.09056920     0.02800
H706        H  0.05043256  0.54040370  0.07089121     0.06300
H707        H  0.11364608  0.43333631  0.10302487     0.05300
H708        H  0.13578989  0.45127860  0.07375333    -0.00500
H709        H  0.09610459  0.46064334  0.07845359     0.01000
H710        H  0.17548353  0.56161394  0.16380379     0.04700
H711        H  0.15527668  0.54663431  0.19559196     0.06600
H712        H  0.13643756  0.57241408  0.17014516     0.07500
C713        C  0.02547900  0.65307209  0.76256683    -0.22100
C714        C  0.04247544  0.67913059  0.75583182     0.09800
C715        C  0.06798991  0.68647910  0.77354064     0.10200
C716        C  0.07561189  0.66787856  0.79812192    -0.17100
C717        C  0.05850702  0.64173250  0.80542445    -0.27500
C718        C  0.03320529  0.63408265  0.78691876     0.18600
C719        C  0.03404249  0.69763735  0.72917020     0.12500
C720        C  0.08742606  0.71373403  0.76616551    -0.11800
H721        H  0.09511213  0.67400397  0.81176249     0.12800
C722        C  0.01455094  0.60573471  0.79186994    -0.22700
H723        H  0.00620478  0.64742963  0.74838580     0.08400
C724        C  0.04272014  0.68878204  0.69974147     0.04800
C725        C  0.03483590  0.70711588  0.67512102    -0.19900
C726        C  0.01832115  0.73400841  0.67920527    -0.12200
C727        C  0.00926782  0.74274130  0.70858658     0.13500
C728        C  0.01739525  0.72445695  0.73336228    -0.22600
C729        C  0.06047750  0.66009800  0.69436073    -0.05700
H730        H  0.04163081  0.70047922  0.65247138     0.15000
C731        C  0.99015195  0.77057912  0.71365575    -0.15900
H732        H  0.01062269  0.73093692  0.75605192     0.09300
H733        H  0.99689481  0.60282245  0.77417549     0.07200
H734        H  0.00267051  0.60692065  0.81400475     0.08400
H735        H  0.02945292  0.58546320  0.79106807     0.07500
H736        H  0.07361913  0.73471564  0.76766561     0.02300
H737        H  0.09667494  0.71153498  0.74286808     0.02800
H738        H  0.10684482  0.71605029  0.78200738     0.06300
H739        H  0.06572114  0.65676223  0.66998741     0.05300
H740        H  0.04714858  0.64016945  0.70224467    -0.00500
H741        H  0.08226194  0.66113983  0.70692303     0.01000
H742        H  0.98410765  0.77343200  0.73790438     0.04700
H743        H  0.96877071  0.76866240  0.70049802     0.06600
H744        H  0.00270189  0.79117681  0.70632773     0.07500
C745        C  0.11860934  0.81617938  0.59941660    -0.22100
C746        C  0.13847933  0.79721982  0.61533426     0.09800
C747        C  0.12685884  0.77180991  0.63105252     0.10200
C748        C  0.09548302  0.76618630  0.63091428    -0.17100
C749        C  0.07558113  0.78516814  0.61511248    -0.27500
C750        C  0.08722500  0.81038744  0.59895298     0.18600
C751        C  0.17117719  0.80519522  0.61673709     0.12500
C752        C  0.14760171  0.75069707  0.64798158    -0.11800
H753        H  0.08639429  0.74682148  0.64312752     0.12800
C754        C  0.06727588  0.83185830  0.58147278    -0.22700
H755        H  0.12762910  0.83577542  0.58752847     0.08400
C756        C  0.19210546  0.79521355  0.59468013     0.04800
C757        C  0.22315662  0.80201136  0.59821043    -0.19900
C758        C  0.23359135  0.81857493  0.62332795    -0.12200
C759        C  0.21220172  0.82989398  0.64456216     0.13500
C760        C  0.18139013  0.82262126  0.64118045    -0.22600
C761        C  0.18164304  0.77701885  0.56777895    -0.05700
H762        H  0.23942339  0.79364487  0.58178878     0.15000
C763        C  0.22068397  0.85050507  0.67054629    -0.15900
H764        H  0.16509951  0.83072870  0.65773915     0.09300
H765        H  0.07413424  0.83176169  0.55728365     0.07200
H766        H  0.07002316  0.85522414  0.59054587     0.08400
H767        H  0.04285662  0.82584540  0.58272392     0.07500
H768        H  0.15978390  0.76339276  0.66598035     0.02300
H769        H  0.16442559  0.74072738  0.63212632     0.02800
H770        H  0.13483479  0.73179377  0.65880846     0.06300
H771        H  0.20088182  0.77084696  0.55272281     0.05300
H772        H  0.16517209  0.79049236  0.55441021    -0.00500
H773        H  0.17049677  0.75574569  0.57552568     0.01000
H774        H  0.20680841  0.87148424  0.66947954     0.04700
H775        H  0.24473941  0.85785649  0.67019188     0.06600
H776        H  0.21597406  0.83883141  0.69232959     0.07500
C777        C  0.33618785  0.48400571  0.61550670    -0.22100
C778        C  0.36239440  0.48390062  0.59740136     0.09800
C779        C  0.39068915  0.49145703  0.61034677     0.10200
C780        C  0.39225610  0.49800302  0.64130065    -0.17100
C781        C  0.36635831  0.49666825  0.65984715    -0.27500
C782        C  0.33781537  0.48993591  0.64672656     0.18600
C783        C  0.36059306  0.47281262  0.56577513     0.12500
C784        C  0.41947159  0.49143243  0.59180575    -0.11800
H785        H  0.41405410  0.50347159  0.65132257     0.12800
C786        C  0.30898703  0.48704402  0.66491985    -0.22700
H787        H  0.31453176  0.47805300  0.60545270     0.08400
C788        C  0.35836241  0.44143137  0.55947002     0.04800
C789        C  0.36146143  0.43130672  0.52952895    -0.19900
C790        C  0.36724044  0.45177472  0.50594264    -0.12200
C791        C  0.36803971  0.48327726  0.51199271     0.13500
C792        C  0.36454402  0.49344528  0.54190520    -0.22600
C793        C  0.35435221  0.41849875  0.58447963    -0.05700
H794        H  0.36099387  0.40716510  0.52470371     0.15000
C795        C  0.37293351  0.50659683  0.48752885    -0.15900
H796        H  0.36606603  0.51752896  0.54680490     0.09300
H797        H  0.29910945  0.46405681  0.66155597     0.07200
H798        H  0.29237927  0.50424617  0.65714550     0.08400
H799        H  0.31248521  0.49007089  0.68947524     0.07500
H800        H  0.41793347  0.50860862  0.57352047     0.02300
H801        H  0.42299005  0.46864328  0.58165007     0.02800
H802        H  0.43969461  0.49699535  0.60575955     0.06300
H803        H  0.35395699  0.39488856  0.57563502     0.05300
H804        H  0.33257702  0.42255474  0.59646653    -0.00500
H805        H  0.37339740  0.42044395  0.60080642     0.01000
H806        H  0.35361221  0.52272432  0.48741294     0.04700
H807        H  0.37447158  0.49634822  0.46466856     0.06600
H808        H  0.39422959  0.51939220  0.49199548     0.07500
C809        C  0.38435016  0.63120655  0.73584316    -0.22100
C810        C  0.38110013  0.64159817  0.70608218     0.09800
C811        C  0.37968089  0.62061737  0.68201364     0.10200
C812        C  0.38134284  0.58952003  0.68829998    -0.17100
C813        C  0.38405183  0.57895363  0.71808803    -0.27500
C814        C  0.38524433  0.60004929  0.74230228     0.18600
C815        C  0.37723699  0.67442382  0.70056789     0.12500
C816        C  0.37556108  0.63103980  0.64981048    -0.11800
H817        H  0.38003645  0.57327265  0.66988976     0.12800
C818        C  0.38559981  0.59082317  0.77516739    -0.22700
H819        H  0.38495824  0.64751210  0.75423811     0.08400
C820        C  0.34891654  0.68851065  0.70478821     0.04800
C821        C  0.34555467  0.71909708  0.69689545    -0.19900
C822        C  0.36971697  0.73602088  0.68431506    -0.12200
C823        C  0.39838948  0.72163977  0.68051858     0.13500
C824        C  0.40168406  0.69110223  0.68897144    -0.22600
C825        C  0.32198118  0.67098373  0.71676005    -0.05700
H826        H  0.32356785  0.72958130  0.70009596     0.15000
C827        C  0.42559548  0.73759525  0.66704974    -0.15900
H828        H  0.42328385  0.67979932  0.68577466     0.09300
H829        H  0.36612372  0.60149092  0.78706587     0.07200
H830        H  0.40701681  0.59877707  0.78580919     0.08400
H831        H  0.38348987  0.56605249  0.77869159     0.07500
H832        H  0.39500040  0.64560364  0.64293864     0.02300
H833        H  0.35419640  0.64419830  0.64784630     0.02800
H834        H  0.37428449  0.61159778  0.63383612     0.06300
H835        H  0.30131370  0.68530081  0.71812000     0.05300
H836        H  0.32694824  0.66237959  0.73982112    -0.00500
H837        H  0.31698511  0.65148857  0.70159342     0.01000
H838        H  0.44570040  0.72249165  0.66572681     0.04700
H839        H  0.43199362  0.75738036  0.68127449     0.06600
H840        H  0.42041098  0.74508812  0.64366239     0.07500
C841        C  0.23956148  0.53517407  0.83856389    -0.22100
C842        C  0.23544184  0.53417750  0.80713149     0.09800
C843        C  0.20635963  0.53863730  0.79477980     0.10200
C844        C  0.18206465  0.54514241  0.81420947    -0.17100
C845        C  0.18619338  0.54683787  0.84566778    -0.27500
C846        C  0.21525189  0.54150549  0.85810736     0.18600
C847        C  0.26204317  0.52870574  0.78756611     0.12500
C848        C  0.20111889  0.53681606  0.76114240    -0.11800
H849        H  0.15974113  0.54930113  0.80480096     0.12800
C850        C  0.22181010  0.54358028  0.89152012    -0.22700
H851        H  0.26204498  0.53159462  0.84784215     0.08400
C852        C  0.28043518  0.55285344  0.77717640     0.04800
C853        C  0.30638964  0.54633314  0.75999360    -0.19900
C854        C  0.31437758  0.51625121  0.75336997    -0.12200
C855        C  0.29505961  0.49221343  0.76250176     0.13500
C856        C  0.26920096  0.49877456  0.77975779    -0.22600
C857        C  0.27309314  0.58534106  0.78488635    -0.05700
H858        H  0.32126959  0.56468604  0.75293902     0.15000
C859        C  0.30084824  0.45954093  0.75420624    -0.15900
H860        H  0.25460439  0.48040978  0.78736731     0.09300
H861        H  0.23934636  0.56130519  0.89553185     0.07200
H862        H  0.23055958  0.52143817  0.89967005     0.08400
H863        H  0.20164844  0.54951302  0.90527348     0.07500
H864        H  0.20745960  0.51392073  0.75277297     0.02300
H865        H  0.21516122  0.55414245  0.74935398     0.02800
H866        H  0.17695612  0.54084374  0.75527844     0.06300
H867        H  0.28993270  0.60138091  0.77500974     0.05300
H868        H  0.27311835  0.58839628  0.80982719    -0.00500
H869        H  0.25035169  0.59126805  0.77592791     0.01000
H870        H  0.30467599  0.44607947  0.77507855     0.04700
H871        H  0.32068172  0.45667288  0.73901343     0.06600
H872        H  0.28075316  0.45023085  0.74217259     0.07500
C873        C  0.38170949  0.85357816  0.98141893    -0.22100
C874        C  0.38858184  0.84954260  0.01198585     0.09800
C875        C  0.36483656  0.84636902  0.03318622     0.10200
C876        C  0.33468008  0.84976657  0.02357472    -0.17100
C877        C  0.32770952  0.85663622  0.99328918    -0.27500
C878        C  0.35169353  0.85737307  0.97168486     0.18600
C879        C  0.42015161  0.85545933  0.02177491     0.12500
C880        C  0.37146623  0.84043825  0.06607774    -0.11800
H881        H  0.31647709  0.84859523  0.04010247     0.12800
C882        C  0.34757768  0.86425028  0.93865454    -0.22700
H883        H  0.40015103  0.85612143  0.96528227     0.08400
C884        C  0.44362098  0.83402728  0.01875544     0.04800
C885        C  0.47333036  0.84215938  0.02731843    -0.19900
C886        C  0.48008916  0.87144195  0.03836547    -0.12200
C887        C  0.45615388  0.89284502  0.04123534     0.13500
C888        C  0.42669062  0.88448362  0.03280544    -0.22600
C889        C  0.43719598  0.80266665  0.00678050    -0.05700
H890        H  0.49135743  0.82560280  0.02524812     0.15000
C891        C  0.46083433  0.92429139  0.05403201    -0.15900
H892        H  0.40840351  0.90080994  0.03472488     0.09300
H893        H  0.35619375  0.84500092  0.92490066     0.07200
H894        H  0.36053292  0.88507611  0.93263600     0.08400
H895        H  0.32394239  0.86799121  0.93242361     0.07500
H896        H  0.38491180  0.85945091  0.07574961     0.02300
H897        H  0.38456688  0.81906058  0.06825722     0.02800
H898        H  0.35028657  0.83809369  0.07957891     0.06300
H899        H  0.45801108  0.78851268  0.00620679     0.05300
H900        H  0.42813730  0.80416699  0.98340635    -0.00500
H901        H  0.42018758  0.79120733  0.02147366     0.01000
H902        H  0.47584292  0.93774905  0.03889572     0.04700
H903        H  0.47089679  0.92273389  0.07699267     0.06600
H904        H  0.43915302  0.93693719  0.05615280     0.07500
C905        C  0.29270662  0.90357910  0.86422391    -0.22100
C906        C  0.28120900  0.87958076  0.84684717     0.09800
C907        C  0.26368846  0.85660426  0.86084094     0.10200
C908        C  0.25867552  0.85785036  0.89213170    -0.17100
C909        C  0.27076368  0.88146148  0.90966978    -0.27500
C910        C  0.28804436  0.90472115  0.89555998     0.18600
C911        C  0.29083283  0.87710432  0.81486830     0.12500
C912        C  0.25029945  0.83078120  0.84282117    -0.11800
H913        H  0.24554653  0.84009537  0.90306467     0.12800
C914        C  0.30378185  0.92983162  0.91277925    -0.22700
H915        H  0.30676960  0.92073611  0.85346598     0.08400
C916        C  0.28002570  0.89683037  0.79217166     0.04800
C917        C  0.29008494  0.89295783  0.76220534    -0.19900
C918        C  0.31065151  0.86986153  0.75468297    -0.12200
C919        C  0.32256001  0.85115047  0.77782469     0.13500
C920        C  0.31226834  0.85490729  0.80752299    -0.22600
C921        C  0.25738398  0.92133574  0.79941604    -0.05700
H922        H  0.28122076  0.90739492  0.74446194     0.15000
C923        C  0.34681488  0.82762593  0.77239724    -0.15900
H924        H  0.32128046  0.84052492  0.82526643     0.09300
H925        H  0.29409649  0.95206159  0.90607014     0.07200
H926        H  0.32837905  0.92976548  0.90719050     0.08400
H927        H  0.30203666  0.92749625  0.93764029     0.07500
H928        H  0.26862671  0.81703012  0.83244974     0.02300
H929        H  0.23550750  0.83995099  0.82470846     0.02800
H930        H  0.23637228  0.81543733  0.85723406     0.06300
H931        H  0.25069284  0.93415657  0.77885953     0.05300
H932        H  0.26733666  0.93771281  0.81574070    -0.00500
H933        H  0.23662405  0.91104026  0.80942855     0.01000
H934        H  0.36634059  0.83213382  0.78764390     0.04700
H935        H  0.35587074  0.82772510  0.74900795     0.06600
H936        H  0.33756574  0.80468984  0.77745004     0.07500
C937        C  0.19909886  0.70822153  0.93645490    -0.22100
C938        C  0.18676791  0.72815117  0.95784940     0.09800
C939        C  0.15835103  0.72142401  0.97110132     0.10200
C940        C  0.14223852  0.69561051  0.96156355    -0.17100
C941        C  0.15373567  0.67632061  0.93893993    -0.27500
C942        C  0.18318682  0.68221529  0.92699416     0.18600
C943        C  0.20253282  0.75735386  0.96377449     0.12500
C944        C  0.14496507  0.74150528  0.99529001    -0.11800
H945        H  0.12007783  0.69101658  0.97127070     0.12800
C946        C  0.19840660  0.66124869  0.90464748    -0.22700
H947        H  0.22096460  0.71356656  0.92643833     0.08400
C948        C  0.23030542  0.75914051  0.97963837     0.04800
C949        C  0.24409975  0.78766023  0.98396623    -0.19900
C950        C  0.23059698  0.81422627  0.97293930    -0.12200
C951        C  0.20312468  0.81226758  0.95646795     0.13500
C952        C  0.18950001  0.78386060  0.95220602    -0.22600
C953        C  0.24503534  0.73116435  0.99244209    -0.05700
H954        H  0.26532527  0.78931919  0.99625768     0.15000
C955        C  0.18783879  0.83932182  0.94223858    -0.15900
H956        H  0.16857313  0.78229653  0.93938346     0.09300
H957        H  0.22219065  0.66830116  0.89990499     0.07200
H958        H  0.18611168  0.66144683  0.88276699     0.08400
H959        H  0.19901990  0.63782016  0.91390622     0.07500
H960        H  0.14050365  0.76448589  0.98611226     0.02300
H961        H  0.16101989  0.74333057  0.01455259     0.02800
H962        H  0.12313592  0.73229462  0.00402845     0.06300
H963        H  0.26615469  0.73678717  0.00498703     0.05300
H964        H  0.25109070  0.71528328  0.97391300    -0.00500
H965        H  0.22912939  0.71969558  0.00830114     0.01000
H966        H  0.18519460  0.83531560  0.91756674     0.04700
H967        H  0.20068157  0.86076970  0.94487559     0.06600
H968        H  0.16500179  0.84236863  0.95246696     0.07500
C969        C  0.72639855  0.48082288  0.91155465    -0.22100
C970        C  0.70542446  0.50134116  0.92357441     0.09800
C971        C  0.67413660  0.49689987  0.91854278     0.10200
C972        C  0.66440253  0.47098831  0.90273021    -0.17100
C973        C  0.68529764  0.44966985  0.89143985    -0.27500
C974        C  0.71684161  0.45501518  0.89551650     0.18600
C975        C  0.71688825  0.52605259  0.94315410     0.12500
C976        C  0.65111471  0.51945012  0.92991303    -0.11800
H977        H  0.64030200  0.46721494  0.89940914     0.12800
C978        C  0.74063411  0.43305503  0.88449826    -0.22700
H979        H  0.75039206  0.48461224  0.91559404     0.08400
C980        C  0.71854029  0.52236217  0.97469243     0.04800
C981        C  0.73087341  0.54566655  0.99243980    -0.19900
C982        C  0.74297864  0.57246861  0.97951250    -0.12200
C983        C  0.73996514  0.57635769  0.94750380     0.13500
C984        C  0.72739982  0.55289448  0.92994085    -0.22600
C985        C  0.70793120  0.49339500  0.98965032    -0.05700
H986        H  0.73042199  0.54235472  0.01652604     0.15000
C987        C  0.74942139  0.60459102  0.93040512    -0.15900
H988        H  0.72578316  0.55555169  0.90559259     0.09300
H989        H  0.73645568  0.41023106  0.89436452     0.07200
H990        H  0.76388027  0.44027318  0.89114113     0.08400
H991        H  0.74016370  0.43171092  0.85942523     0.07500
H992        H  0.65572473  0.54203723  0.91971511     0.02300
H993        H  0.65238947  0.52143970  0.95489817     0.02800
H994        H  0.62759454  0.51260631  0.92387775     0.06300
H995        H  0.71115682  0.49401982  0.01456546     0.05300
H996        H  0.72103504  0.47389943  0.98059913    -0.00500
H997        H  0.68345121  0.48958401  0.98517474     0.01000
H998        H  0.76782339  0.59881361  0.91419657     0.04700
H999        H  0.75746299  0.62349236  0.94469352     0.06600
H1000       H  0.72971394  0.61332752  0.91746058     0.07500
C1001       C  0.58505305  0.32330069  0.00576394    -0.22100
C1002       C  0.56898169  0.29584348  0.00371601     0.09800
C1003       C  0.56871055  0.27953617  0.97624454     0.10200
C1004       C  0.58544528  0.29058055  0.95162660    -0.17100
C1005       C  0.60182493  0.31785984  0.95364629    -0.27500
C1006       C  0.60150712  0.33463609  0.98094776     0.18600
C1007       C  0.55361234  0.28366987  0.03087548     0.12500
C1008       C  0.55048846  0.25069472  0.97281542    -0.11800
H1009       H  0.58539706  0.27808760  0.93046263     0.12800
C1010       C  0.61895638  0.36384130  0.98503402    -0.22700
H1011       H  0.58517358  0.33565531  0.02699784     0.08400
C1012       C  0.56774911  0.26185314  0.04920290     0.04800
C1013       C  0.55130259  0.24850417  0.07289335    -0.19900
C1014       C  0.52061548  0.25597172  0.07857901    -0.12200
C1015       C  0.50816771  0.28109826  0.06247178     0.13500
C1016       C  0.52446876  0.29376131  0.03818884    -0.22600
C1017       C  0.60027167  0.25267243  0.04372097    -0.05700
H1018       H  0.56308469  0.23248949  0.08703344     0.15000
C1019       C  0.47806859  0.29563906  0.06993367    -0.15900
H1020       H  0.51434355  0.31168897  0.02480322     0.09300
H1021       H  0.63524054  0.36129765  0.00401261     0.07200
H1022       H  0.60294637  0.38247508  0.99052355     0.08400
H1023       H  0.63211883  0.37047237  0.96467870     0.07500
H1024       H  0.52613896  0.25543104  0.97725524     0.02300
H1025       H  0.55850645  0.23331394  0.98906675     0.02800
H1026       H  0.55250335  0.24109176  0.94964728     0.06300
H1027       H  0.60802898  0.23545988  0.06032522     0.13700
H1028       H  0.61527913  0.27288385  0.04569816    -0.00500
H1029       H  0.60279324  0.24282929  0.02074140     0.01000
H1030       H  0.48151297  0.32037759  0.07347958     0.04700
H1031       H  0.46734751  0.28688183  0.09080613     0.06600
H1032       H  0.46210322  0.29234721  0.05078220     0.07500
C1033       C  0.51467482  0.43943433  0.81643183    -0.22100
C1034       C  0.49551364  0.42496972  0.79579998     0.09800
C1035       C  0.50131597  0.39482987  0.78696088     0.10200
C1036       C  0.52677287  0.37984530  0.79869691    -0.17100
C1037       C  0.54657860  0.39434916  0.81914848    -0.27500
C1038       C  0.54014444  0.42468992  0.82829837     0.18600
C1039       C  0.47048982  0.44265753  0.78249638     0.12500
C1040       C  0.48068573  0.37864784  0.76504795    -0.11800
H1041       H  0.53129175  0.35672580  0.79164907     0.12800
C1042       C  0.56022370  0.44242854  0.84964743    -0.22700
H1043       H  0.50987035  0.46270409  0.82283893     0.08400
C1044       C  0.44256374  0.44607957  0.79743358     0.04800
C1045       C  0.41977636  0.46361273  0.78399510    -0.19900
C1046       C  0.42413311  0.47818857  0.75575332    -0.12200
C1047       C  0.45335941  0.47573535  0.74177679     0.13500
C1048       C  0.47568602  0.45761627  0.75516018    -0.22600
C1049       C  0.43685126  0.43117226  0.82763285    -0.05700
H1050       H  0.39893827  0.46580278  0.79641899     0.15000
C1051       C  0.46270170  0.49158131  0.71283380    -0.15900
H1052       H  0.49769258  0.45542233  0.74430832     0.09300
H1053       H  0.56034505  0.43149632  0.87227007     0.07200
H1054       H  0.55210124  0.46605888  0.85290589     0.08400
H1055       H  0.58366110  0.44379266  0.84042044     0.07500
H1056       H  0.48028964  0.39100825  0.74316451     0.02300
H1057       H  0.45730651  0.37763804  0.77445774     0.02800
H1058       H  0.48833741  0.35505733  0.76061373     0.06300
H1059       H  0.41365609  0.43590114  0.83630450     0.05300
H1060       H  0.45342169  0.43978406  0.84451193    -0.00500
H1061       H  0.43937746  0.40619701  0.82544190     0.01000
H1062       H  0.48318001  0.50569860  0.71719134     0.04700
H1063       H  0.44550728  0.50682380  0.70313137     0.06600
H1064       H  0.46841106  0.47433135  0.69540455     0.07500
C1065       C  0.83434007  0.02257057  0.43865788    -0.22100
C1066       C  0.85879483  0.01965989  0.41854612     0.09800
C1067       C  0.88845820  0.02609534  0.42861075     0.10200
C1068       C  0.89307961  0.03520393  0.45862217    -0.17100
C1069       C  0.86871949  0.03882957  0.47900778    -0.27500
C1070       C  0.83881224  0.03220734  0.46876786     0.18600
C1071       C  0.85319450  0.01156235  0.38644991     0.12500
C1072       C  0.91526395  0.02408762  0.40740397    -0.11800
H1073       H  0.91600742  0.04041687  0.46585912     0.12800
C1074       C  0.81148526  0.03495590  0.48915868    -0.22700
H1075       H  0.81161494  0.01772230  0.43056389     0.08400
C1076       C  0.85616392  0.98147800  0.37585097     0.04800
C1077       C  0.85650058  0.97591765  0.34450370    -0.19900
C1078       C  0.85413016  0.99985177  0.32368013    -0.12200
C1079       C  0.84807694  0.02953465  0.33451510     0.13500
C1080       C  0.84813194  0.03505204  0.36576199    -0.22600
C1081       C  0.86009692  0.95550659  0.39761528    -0.05700
H1082       H  0.86057369  0.95311305  0.33629915     0.15000
C1083       C  0.84168280  0.05592890  0.31379457    -0.15900
H1084       H  0.84522084  0.05805292  0.37402891     0.09300
H1085       H  0.79036646  0.02730962  0.47770362     0.07200
H1086       H  0.80815657  0.05900872  0.49584213     0.08400
H1087       H  0.81459153  0.02066792  0.50960530     0.07500
H1088       H  0.91214366  0.04000587  0.38819624     0.02300
H1089       H  0.91737370  0.00063307  0.39849031     0.02800
H1090       H  0.93688920  0.03007303  0.41888175     0.06300
H1091       H  0.86210856  0.93343511  0.38560690     0.05300
H1092       H  0.84015192  0.95426070  0.41297959    -0.00500
H1093       H  0.88092584  0.95893186  0.41130539     0.01000
H1094       H  0.81978379  0.06651767  0.32032850     0.04700
H1095       H  0.83963659  0.04909989  0.28973826     0.06600
H1096       H  0.86006321  0.07312363  0.31590107     0.07500
C1097       C  0.05636091  0.12546094  0.54203135    -0.22100
C1098       C  0.06165820  0.12710587  0.51078648     0.09800
C1099       C  0.03688109  0.12558178  0.49055562     0.10200
C1100       C  0.00740429  0.12145825  0.50213244    -0.17100
C1101       C  0.00231606  0.11915226  0.53338048    -0.27500
C1102       C  0.02698873  0.12168546  0.55363012     0.18600
C1103       C  0.09356347  0.12705026  0.50006815     0.12500
C1104       C  0.04153071  0.12830360  0.45687356    -0.11800
H1105       H  0.98833369  0.11946970  0.48677340     0.12800
C1106       C  0.02334389  0.11945573  0.58751877    -0.22700
H1107       H  0.07544561  0.12613676  0.55749478     0.08400
C1108       C  0.11342800  0.15183126  0.50501188     0.04800
C1109       C  0.14437590  0.14881048  0.49781263    -0.19900
C1110       C  0.15573926  0.12151462  0.48617503    -0.12200
C1111       C  0.13552952  0.09728070  0.47979752     0.13500
C1112       C  0.10478456  0.10030699  0.48712727    -0.22600
C1113       C  0.10207246  0.18125025  0.51813267    -0.05700
H1114       H  0.15997983  0.16732712  0.50245049     0.15000
C1115       C  0.14547051  0.06782217  0.46551913    -0.15900
H1116       H  0.08953069  0.08126903  0.48346004     0.09300
H1117       H  0.03199709  0.14059156  0.59822233     0.07200
H1118       H  0.03667968  0.09992370  0.59607984     0.08400
H1119       H  0.99945798  0.11627364  0.59482370     0.07500
H1120       H  0.05567748  0.10930867  0.44842751     0.02300
H1121       H  0.05301017  0.15017315  0.45164541     0.02800
H1122       H  0.01962379  0.12766765  0.44447424     0.06300
H1123       H  0.12046043  0.19850939  0.51966345     0.05300
H1124       H  0.09301893  0.17749679  0.54127620    -0.00500
H1125       H  0.08380773  0.19049697  0.50355886     0.01000
H1126       H  0.14100720  0.04877974  0.48138873     0.04700
H1127       H  0.16980815  0.06752211  0.45936285     0.06600
H1128       H  0.13236895  0.06392279  0.44441357     0.07500
C1129       C  0.96318204  0.94900667  0.65411316    -0.22100
C1130       C  0.96972421  0.92842942  0.63086978     0.09800
C1131       C  0.96575416  0.93726242  0.60049751     0.10200
C1132       C  0.95534407  0.96656979  0.59401906    -0.17100
C1133       C  0.94798118  0.98737076  0.61713847    -0.27500
C1134       C  0.95224076  0.97833586  0.64777353     0.18600
C1135       C  0.97780466  0.89671496  0.63848540     0.12500
C1136       C  0.97154370  0.91537096  0.57486564    -0.11800
H1137       H  0.95214704  0.97286398  0.57054186     0.12800
C1138       C  0.94535010  0.99905533  0.67404908    -0.22700
H1139       H  0.96602087  0.94176263  0.67737960     0.08400
C1140       C  0.00813227  0.88646201  0.63835497     0.04800
C1141       C  0.01389887  0.85512832  0.64004519    -0.19900
C1142       C  0.98995675  0.83402773  0.64143409    -0.12200
C1143       C  0.95988225  0.84470832  0.64508120     0.13500
C1144       C  0.95415788  0.87590168  0.64311826    -0.22600
C1145       C  0.03421560  0.90846516  0.63539744    -0.05700
H1146       H  0.03701501  0.84705129  0.63812351     0.15000
C1147       C  0.93334798  0.82377667  0.65073851    -0.15900
H1148       H  0.93093634  0.88396728  0.64410474     0.09300
H1149       H  0.95116828  0.98843237  0.69607396     0.07200
H1150       H  0.92073209  0.00432731  0.67463418     0.08400
H1151       H  0.95880996  0.02032184  0.67200745     0.07500
H1152       H  0.95653225  0.89520459  0.57727016     0.02300
H1153       H  0.99556286  0.90789216  0.57512829     0.02800
H1154       H  0.96699842  0.92583060  0.55246900     0.06300
H1155       H  0.05645768  0.89665552  0.63572023     0.05300
H1156       H  0.03368413  0.92480294  0.65453185    -0.00500
H1157       H  0.03251295  0.92117566  0.61380642     0.01000
H1158       H  0.92111812  0.83115896  0.67146056     0.04700
H1159       H  0.94047542  0.79998224  0.65448193     0.06600
H1160       H  0.91750637  0.82460156  0.63124133     0.07500
C1161       C  0.47201471  0.91472318  0.72851921    -0.22100
C1162       C  0.49617160  0.92180832  0.70909129     0.09800
C1163       C  0.49509802  0.91261499  0.67850679     0.10200
C1164       C  0.46932928  0.89714890  0.66779932    -0.17100
C1165       C  0.44461464  0.89115181  0.68697190    -0.27500
C1166       C  0.44621789  0.89942019  0.71789666     0.18600
C1167       C  0.52153031  0.94041258  0.72094061     0.12500
C1168       C  0.52068748  0.92000776  0.65705212    -0.11800
H1169       H  0.46798780  0.89067359  0.64416117     0.12800
C1170       C  0.42142989  0.89213655  0.74041723    -0.22700
H1171       H  0.47313431  0.92160132  0.75206714     0.08400
C1172       C  0.51869059  0.97201580  0.72410074     0.04800
C1173       C  0.54304865  0.98893673  0.73565150    -0.19900
C1174       C  0.57057297  0.97516128  0.74453912    -0.12200
C1175       C  0.57361687  0.94318942  0.73959069     0.13500
C1176       C  0.54882051  0.92637872  0.72859563    -0.22600
C1177       C  0.48995971  0.98802240  0.71480710    -0.05700
H1178       H  0.54012812  0.01310187  0.73672341     0.15000
C1179       C  0.60236724  0.92540064  0.74507930    -0.15900
H1180       H  0.55094144  0.90204605  0.72549648     0.09300
H1181       H  0.41203077  0.91355214  0.74975177     0.07200
H1182       H  0.43103960  0.87859325  0.75927795     0.08400
H1183       H  0.40251177  0.87874045  0.73061391     0.07500
H1184       H  0.54195375  0.90922488  0.66503116     0.02300
H1185       H  0.52402323  0.94498660  0.65595366     0.02800
H1186       H  0.51597246  0.91163726  0.63380890     0.06300
H1187       H  0.49157503  0.01296086  0.71820691     0.05300
H1188       H  0.47053559  0.97952765  0.72846457    -0.00500
H1189       H  0.48540686  0.98372386  0.69046767     0.01000
H1190       H  0.59837588  0.90857942  0.76338796     0.04700
H1191       H  0.62226064  0.93931700  0.75123719     0.06600
H1192       H  0.60866461  0.91301670  0.72409507     0.07500
C1193       C  0.65558771  0.96781662  0.94764503    -0.22100
C1194       C  0.63306995  0.97024000  0.92553245     0.09800
C1195       C  0.60260903  0.96365390  0.93299278     0.10200
C1196       C  0.59533234  0.95435295  0.96246460    -0.17100
C1197       C  0.61784781  0.95095449  0.98473135    -0.27500
C1198       C  0.64847409  0.95820548  0.97719374     0.18600
C1199       C  0.64148396  0.97854216  0.89417682     0.12500
C1200       C  0.57782248  0.96594828  0.90960335    -0.11800
H1201       H  0.57192644  0.94886801  0.96783911     0.12800
C1202       C  0.67384240  0.95635541  0.99998013    -0.22700
H1203       H  0.67888351  0.97308099  0.94158172     0.08400
C1204       C  0.63948600  0.00876126  0.88386967     0.04800
C1205       C  0.64009852  0.01451842  0.85264778    -0.19900
C1206       C  0.64244894  0.99062351  0.83174054    -0.12200
C1207       C  0.64822878  0.96089680  0.84232136     0.13500
C1208       C  0.64735901  0.95515625  0.87349822    -0.22600
C1209       C  0.63507004  0.03461567  0.90572979    -0.05700
H1210       H  0.63613875  0.03739455  0.84458346     0.15000
C1211       C  0.65460908  0.93475115  0.82127270    -0.15900
H1212       H  0.64967727  0.93205167  0.88162041     0.09300
H1213       H  0.69564495  0.96493349  0.99055544     0.07200
H1214       H  0.67754376  0.93240981  0.00677662     0.08400
H1215       H  0.66823823  0.97033064  0.02014481     0.07500
H1216       H  0.58260886  0.95022308  0.89054600     0.02300
H1217       H  0.57661079  0.98951545  0.90081416     0.02800
H1218       H  0.55524348  0.95993263  0.91914712     0.06300
H1219       H  0.63384857  0.05681347  0.89387581     0.05300
H1220       H  0.65442066  0.03545304  0.92177830    -0.00500
H1221       H  0.61366024  0.03137036  0.91863724     0.01000
H1222       H  0.67649423  0.92406455  0.82759624     0.04700
H1223       H  0.65659210  0.94200334  0.79732575     0.06600
H1224       H  0.63619750  0.91756402  0.82316597     0.07500
C1225       C  0.69913306  0.04635358  0.68892187    -0.22100
C1226       C  0.72726794  0.03438129  0.69733886     0.09800
C1227       C  0.72939107  0.01587547  0.72330222     0.10200
C1228       C  0.70303533  0.00933350  0.74008188    -0.17100
C1229       C  0.67477091  0.02092857  0.73137068    -0.27500
C1230       C  0.67285077  0.04016298  0.70576295     0.18600
C1231       C  0.75424624  0.04217208  0.67883907     0.12500
C1232       C  0.75939951  0.00293734  0.73307361    -0.11800
H1233       H  0.70439161  0.99487130  0.75988065     0.12800
C1234       C  0.64383332  0.05535653  0.69599186    -0.22700
H1235       H  0.69776538  0.06097417  0.66922963     0.08400
C1236       C  0.76123973  0.02618094  0.65206676     0.04800
C1237       C  0.78647566  0.03513140  0.63470044    -0.19900
C1238       C  0.80488618  0.05962123  0.64363404    -0.12200
C1239       C  0.79740861  0.07602440  0.67022919     0.13500
C1240       C  0.77231299  0.06685872  0.68760787    -0.22600
C1241       C  0.74220118  0.99954932  0.64205611    -0.05700
H1242       H  0.79216363  0.02266940  0.61430983     0.15000
C1243       C  0.81444771  0.10399320  0.68039107    -0.15900
H1244       H  0.76643899  0.07940848  0.70790674     0.09300
H1245       H  0.63760844  0.04746769  0.67294896     0.07200
H1246       H  0.64732446  0.08033710  0.69544825     0.08400
H1247       H  0.62444412  0.05090544  0.71133377     0.07500
H1248       H  0.77554899  0.02167034  0.73812114     0.02300
H1249       H  0.76889437  0.98858623  0.71471033     0.02800
H1250       H  0.75703643  0.98872260  0.75370618     0.06300
H1251       H  0.75097059  0.98935002  0.62078467     0.05300
H1252       H  0.71849755  0.00699546  0.63803648    -0.00500
H1253       H  0.74227528  0.98177513  0.65986479     0.01000
H1254       H  0.79838030  0.12327283  0.68241018     0.04700
H1255       H  0.83254905  0.11113650  0.66447599     0.06600
H1256       H  0.82483681  0.09978049  0.70286524     0.07500
C1257       C  0.59126400  0.11844170  0.81590052    -0.22100
C1258       C  0.61187334  0.13823460  0.80176782     0.09800
C1259       C  0.63328257  0.12657671  0.78101362     0.10200
C1260       C  0.63299494  0.09549144  0.77417007    -0.17100
C1261       C  0.61219022  0.07567828  0.78796722    -0.27500
C1262       C  0.59144092  0.08715668  0.80964074     0.18600
C1263       C  0.61286123  0.17054582  0.81115314     0.12500
C1264       C  0.65698504  0.14677881  0.76671121    -0.11800
H1265       H  0.64921656  0.08654264  0.75801452     0.12800
C1266       C  0.57035548  0.06706743  0.82770908    -0.22700
H1267       H  0.57556597  0.12734327  0.83260225     0.08400
C1268       C  0.59923672  0.19371396  0.79398285     0.04800
C1269       C  0.60415299  0.22424582  0.80206667    -0.19900
C1270       C  0.62202027  0.23224885  0.82732480    -0.12200
C1271       C  0.63388180  0.20842834  0.84571065     0.13500
C1272       C  0.62925841  0.17807493  0.83711637    -0.22600
C1273       C  0.57937420  0.18614021  0.76728945    -0.05700
H1274       H  0.59422619  0.24191488  0.78825540     0.15000
C1275       C  0.65158484  0.21414131  0.87439872    -0.15900
H1276       H  0.63911807  0.15992283  0.85039641     0.09300
H1277       H  0.54644351  0.07305290  0.82261246     0.07200
H1278       H  0.57454573  0.07062398  0.85223805     0.08400
H1279       H  0.57357717  0.04256256  0.82318561     0.07500
H1280       H  0.67120845  0.15731912  0.78460648     0.02300
H1281       H  0.64596506  0.16494356  0.75334091     0.02800
H1282       H  0.67216520  0.13387794  0.75129834     0.06300
H1283       H  0.57015799  0.20689733  0.75646438     0.05300
H1284       H  0.55994836  0.17191186  0.77490866    -0.00500
H1285       H  0.59248817  0.17344513  0.75000254     0.01000
H1286       H  0.63769789  0.22765257  0.89047941     0.04700
H1287       H  0.67315414  0.22614866  0.86913420     0.06600
H1288       H  0.65771307  0.19268048  0.88604990     0.07500
C1289       C  0.61674951  0.33839840  0.46694545    -0.22100
C1290       C  0.59447329  0.35210593  0.48508950     0.09800
C1291       C  0.60311079  0.36744874  0.51177691     0.10200
C1292       C  0.63401800  0.37080211  0.51850180    -0.17100
C1293       C  0.65637538  0.35875390  0.49942370    -0.27500
C1294       C  0.64774118  0.34166913  0.47380042     0.18600
C1295       C  0.56337351  0.35565240  0.47294925     0.12500
C1296       C  0.57976650  0.38184510  0.53216504    -0.11800
H1297       H  0.64073306  0.38474237  0.53752801     0.12800
C1298       C  0.67125469  0.32787750  0.45322015    -0.22700
H1299       H  0.60994052  0.32679270  0.44639924     0.08400
C1300       C  0.55712162  0.37933088  0.45243744     0.04800
C1301       C  0.52712552  0.38473621  0.44375932    -0.19900
C1302       C  0.50305518  0.36705797  0.45493907    -0.12200
C1303       C  0.50926824  0.34302022  0.47531344     0.13500
C1304       C  0.53951384  0.33755311  0.48397482    -0.22600
C1305       C  0.58207747  0.39943430  0.44019765    -0.05700
H1306       H  0.52238706  0.40300493  0.42803457     0.15000
C1307       C  0.48473981  0.32377190  0.48951926    -0.15900
H1308       H  0.54441616  0.31972379  0.50013291     0.09300
H1309       H  0.66063808  0.31482591  0.43448189     0.07200
H1310       H  0.68587242  0.31221215  0.46636702     0.08400
H1311       H  0.68560741  0.34598698  0.44309184     0.07500
H1312       H  0.56395286  0.36414753  0.54077375     0.02300
H1313       H  0.56669729  0.39913141  0.51943149     0.02800
H1314       H  0.59042606  0.39318662  0.55195421     0.06300
H1315       H  0.57311970  0.41716516  0.42478105     0.05300
H1316       H  0.59863386  0.38557767  0.42726601    -0.00500
H1317       H  0.59393953  0.41100356  0.45914471     0.01000
H1318       H  0.48794555  0.29968663  0.48284384     0.04700
H1319       H  0.46154840  0.33076472  0.48299345     0.06600
H1320       H  0.48625164  0.32551901  0.51454898     0.07500
C1321       C  0.72295418  0.39456970  0.63538479    -0.22100
C1322       C  0.69632099  0.37999780  0.64499221     0.09800
C1323       C  0.67546401  0.36923513  0.62341061     0.10200
C1324       C  0.68203549  0.37264953  0.59260041    -0.17100
C1325       C  0.70899551  0.38661306  0.58247161    -0.27500
C1326       C  0.72963856  0.39819497  0.60441219     0.18600
C1327       C  0.69083040  0.37543971  0.67775488     0.12500
C1328       C  0.64662415  0.35330455  0.63290610    -0.11800
H1329       H  0.66617197  0.36347529  0.57638044     0.12800
C1330       C  0.75925087  0.41330277  0.59597406    -0.22700
H1331       H  0.73874175  0.40283840  0.65230885     0.08400
C1332       C  0.70381039  0.35081135  0.69348255     0.04800
C1333       C  0.69627703  0.34618272  0.72404455    -0.19900
C1334       C  0.67597338  0.36555961  0.73898293    -0.12200
C1335       C  0.66321864  0.39038018  0.72330161     0.13500
C1336       C  0.67089551  0.39504506  0.69284068    -0.22600
C1337       C  0.72509542  0.32916951  0.67781250    -0.05700
H1338       H  0.70600256  0.32723252  0.73626086     0.15000
C1339       C  0.64126391  0.41215965  0.73788525    -0.15900
H1340       H  0.66087376  0.41382326  0.68059438     0.09300
H1341       H  0.77390418  0.41698680  0.61608406     0.07200
H1342       H  0.75489194  0.43598640  0.58613379     0.08400
H1343       H  0.77219198  0.39911493  0.57975965     0.07500
H1344       H  0.63242126  0.36887057  0.64666308     0.02300
H1345       H  0.65221037  0.33291649  0.64654455     0.02800
H1346       H  0.63299998  0.34584550  0.61310300     0.06300
H1347       H  0.73294169  0.31096403  0.69328946     0.05300
H1348       H  0.74536328  0.34168480  0.66945189    -0.00500
H1349       H  0.71339564  0.31830681  0.65835339     0.01000
H1350       H  0.65077136  0.43552463  0.73692642     0.04700
H1351       H  0.63643080  0.40673112  0.76191418     0.06600
H1352       H  0.61941111  0.41166171  0.72540134     0.07500
C1353       C  0.77814556  0.27933764  0.55080916    -0.22100
C1354       C  0.78700860  0.26325339  0.52496419     0.09800
C1355       C  0.77815489  0.27363348  0.49613535     0.10200
C1356       C  0.76126665  0.30052530  0.49379583    -0.17100
C1357       C  0.75297150  0.31716845  0.51964641    -0.27500
C1358       C  0.76137183  0.30623515  0.54860323     0.18600
C1359       C  0.80589095  0.23579223  0.52899545     0.12500
C1360       C  0.78719682  0.25676540  0.46789995    -0.11800
H1361       H  0.75488236  0.30890542  0.47164824     0.12800
C1362       C  0.75438445  0.32339397  0.57724118    -0.22700
H1363       H  0.78498669  0.27101938  0.57285143     0.08400
C1364       C  0.83686586  0.23793932  0.53663789     0.04800
C1365       C  0.85305962  0.21142451  0.54340242    -0.19900
C1366       C  0.83910063  0.18256841  0.54270130    -0.12200
C1367       C  0.80817992  0.18055458  0.53336196     0.13500
C1368       C  0.79208483  0.20725462  0.52691004    -0.22600
C1369       C  0.85281555  0.26826192  0.53765957    -0.05700
H1370       H  0.87669758  0.21347527  0.54985475     0.15000
C1371       C  0.79152064  0.15073268  0.53013520    -0.15900
H1372       H  0.76828646  0.20598145  0.52078122     0.09300
H1373       H  0.76460510  0.31247333  0.59743359     0.07200
H1374       H  0.72956631  0.32417774  0.58112104     0.08400
H1375       H  0.76383505  0.34665384  0.57561553     0.07500
H1376       H  0.77748942  0.23347978  0.46835660     0.02300
H1377       H  0.81232812  0.25534889  0.46651780     0.02800
H1378       H  0.77886817  0.26827139  0.44717080     0.06300
H1379       H  0.87725785  0.26587056  0.54328632     0.05300
H1380       H  0.84223367  0.28297888  0.55509858    -0.00500
H1381       H  0.85111242  0.27949852  0.51523856     0.01000
H1382       H  0.76807782  0.15386060  0.52147388     0.04700
H1383       H  0.78958388  0.13936970  0.55246971     0.06600
H1384       H  0.80365022  0.13589908  0.51380456     0.07500
C1385       C  0.01591644  0.37010999  0.83531230    -0.22100
C1386       C  0.01866284  0.38650905  0.86242352     0.09800
C1387       C  0.01438162  0.37153845  0.89032062     0.10200
C1388       C  0.00698079  0.34066362  0.89045943    -0.17100
C1389       C  0.00427151  0.32401616  0.86345108    -0.27500
C1390       C  0.00923589  0.33885063  0.83546945     0.18600
C1391       C  0.02771073  0.41893503  0.86171764     0.12500
C1392       C  0.01827327  0.38792195  0.92006297    -0.11800
H1393       H  0.00302678  0.32943406  0.91194198     0.12800
C1394       C  0.00912682  0.32234041  0.80560633    -0.22700
H1395       H  0.01977819  0.38161275  0.81395648     0.08400
C1396       C  0.05821961  0.42754051  0.85711247     0.04800
C1397       C  0.06682282  0.45782795  0.86191803    -0.19900
C1398       C  0.04582985  0.47967741  0.87187027    -0.12200
C1399       C  0.01498312  0.47108327  0.87581504     0.13500
C1400       C  0.00630097  0.44094518  0.86991647    -0.22600
C1401       C  0.08196412  0.40452721  0.84849115    -0.05700
H1402       H  0.09040274  0.46431175  0.85882559     0.15000
C1403       C  0.99091669  0.49190461  0.88838374    -0.15900
H1404       H  0.98293893  0.43404198  0.87374755     0.09300
H1405       H  0.03118862  0.32608613  0.79394859     0.07200
H1406       H  0.99061495  0.33127619  0.79115609     0.08400
H1407       H  0.00610487  0.29750883  0.80802690     0.07500
H1408       H  0.00132134  0.40637981  0.92208525     0.02300
H1409       H  0.04149558  0.39772743  0.92143981     0.02800
H1410       H  0.01509154  0.37245179  0.93966890     0.06300
H1411       H  0.10485822  0.41500495  0.84646469     0.05300
H1412       H  0.07617397  0.39415238  0.82634012    -0.00500
H1413       H  0.08307604  0.38647703  0.86598525     0.01000
H1414       H  0.97289023  0.49523229  0.87118787     0.04700
H1415       H  0.99952046  0.51439562  0.89542154     0.06600
H1416       H  0.98058095  0.48134597  0.90879467     0.07500
C1417       C  0.87390278  0.31517057  0.88150146    -0.22100
C1418       C  0.85235612  0.29173353  0.88282127     0.09800
C1419       C  0.86194358  0.26132252  0.88478544     0.10200
C1420       C  0.89305988  0.25499764  0.88517450    -0.17100
C1421       C  0.91476010  0.27821421  0.88191650    -0.27500
C1422       C  0.90511460  0.30879823  0.88099448     0.18600
C1423       C  0.81995436  0.29928617  0.87924808     0.12500
C1424       C  0.83938424  0.23550696  0.88515896    -0.11800
H1425       H  0.90050883  0.23160040  0.88646357     0.12800
C1426       C  0.92740123  0.33478932  0.88058870    -0.22700
H1427       H  0.86618635  0.33847818  0.88017272     0.08400
C1428       C  0.80041392  0.30308087  0.90426965     0.04800
C1429       C  0.76958912  0.30932546  0.89918759    -0.19900
C1430       C  0.75822013  0.31234234  0.86966976    -0.12200
C1431       C  0.77792496  0.30808587  0.84463409     0.13500
C1432       C  0.80860517  0.30193970  0.84984236    -0.22600
C1433       C  0.81226805  0.30130984  0.93616685    -0.05700
H1434       H  0.75450974  0.31279424  0.91829285     0.15000
C1435       C  0.76742602  0.30876002  0.81213987    -0.15900
H1436       H  0.82377713  0.29863646  0.83075543     0.09300
H1437       H  0.91578295  0.35707208  0.88222206     0.07200
H1438       H  0.94054867  0.33481193  0.85922652     0.08400
H1439       H  0.94298558  0.33284027  0.90018361     0.07500
H1440       H  0.82552036  0.23602273  0.86420870     0.02300
H1441       H  0.82416339  0.23752020  0.90507276     0.02800
H1442       H  0.85082317  0.21310615  0.88632285     0.06300
H1443       H  0.79398863  0.30512153  0.95308846     0.05300
H1444       H  0.83004998  0.31891142  0.93957130    -0.00500
H1445       H  0.82222037  0.27862420  0.94043423     0.01000
H1446       H  0.77835128  0.32812288  0.80021253     0.04700
H1447       H  0.74250170  0.31063058  0.80968113     0.06600
H1448       H  0.77417030  0.28733897  0.80072535     0.07500
C1449       C  0.93884421  0.21832548  0.76684566    -0.22100
C1450       C  0.96330612  0.20480364  0.75186096     0.09800
C1451       C  0.99277108  0.20755539  0.76393282     0.10200
C1452       C  0.99688346  0.22276935  0.79159883    -0.17100
C1453       C  0.97213785  0.23505706  0.80759540    -0.27500
C1454       C  0.94273441  0.23312799  0.79470338     0.18600
C1455       C  0.95680590  0.18602185  0.72479347     0.12500
C1456       C  0.01962168  0.19369402  0.74803351    -0.11800
H1457       H  0.01941269  0.22420676  0.80135155     0.12800
C1458       C  0.91488159  0.24401151  0.81107960    -0.22700
H1459       H  0.91629252  0.21593618  0.75731106     0.08400
C1460       C  0.94718997  0.15561776  0.72766264     0.04800
C1461       C  0.93849675  0.13936132  0.70175491    -0.19900
C1462       C  0.93899166  0.15272409  0.67277339    -0.12200
C1463       C  0.94964469  0.18323776  0.67003031     0.13500
C1464       C  0.95828656  0.19935853  0.69614377    -0.22600
C1465       C  0.94582434  0.14042990  0.75820174    -0.05700
H1466       H  0.93078953  0.11612438  0.70439544     0.15000
C1467       C  0.95202680  0.19940761  0.64002679    -0.15900
H1468       H  0.96576776  0.22277057  0.69433939     0.09300
H1469       H  0.89377838  0.23908138  0.79823166     0.07200
H1470       H  0.91581099  0.26888146  0.81455321     0.08400
H1471       H  0.91317188  0.23196396  0.83296474     0.07500
H1472       H  0.02203587  0.20375638  0.72512014     0.02300
H1473       H  0.01629134  0.16879048  0.74586466     0.02800
H1474       H  0.04106930  0.19777530  0.76060219     0.06300
H1475       H  0.93803416  0.11647852  0.75648552     0.05300
H1476       H  0.92978297  0.15274122  0.77319072    -0.00500
H1477       H  0.96871905  0.14055392  0.76866872     0.01000
H1478       H  0.92917678  0.20170669  0.62974515     0.04700
H1479       H  0.96734638  0.18668558  0.62461836     0.06600
H1480       H  0.96153170  0.22267449  0.64250107     0.07500
C1481       C  0.82417037  0.59411663  0.19252717    -0.22100
C1482       C  0.80672351  0.61546386  0.17683677     0.09800
C1483       C  0.79617076  0.64169670  0.19181866     0.10200
C1484       C  0.80343067  0.64607839  0.22232683    -0.17100
C1485       C  0.82087540  0.62480000  0.23804125    -0.27500
C1486       C  0.83155197  0.59854536  0.22307665     0.18600
C1487       C  0.80048634  0.61079472  0.14438564     0.12500
C1488       C  0.77769013  0.66526369  0.17545444    -0.11800
H1489       H  0.79560964  0.66627842  0.23397856     0.12800
C1490       C  0.85125633  0.57526384  0.23839292    -0.22700
H1491       H  0.83240821  0.57416024  0.18075162     0.08400
C1492       C  0.82151577  0.61997226  0.12216759     0.04800
C1493       C  0.81297618  0.61921837  0.09169062    -0.19900
C1494       C  0.78403345  0.60915704  0.08276348    -0.12200
C1495       C  0.76318523  0.59910553  0.10530238     0.13500
C1496       C  0.77192220  0.59992523  0.13578226    -0.22600
C1497       C  0.85263910  0.63136375  0.13071814    -0.05700
H1498       H  0.82890607  0.62719382  0.07479167     0.15000
C1499       C  0.73106351  0.58901103  0.09902014    -0.15900
H1500       H  0.75582602  0.59319063  0.15317633     0.09300
H1501       H  0.87324283  0.57352699  0.22617009     0.07200
H1502       H  0.83974062  0.55280442  0.23783961     0.08400
H1503       H  0.85621817  0.58090178  0.26233708     0.07500
H1504       H  0.75624577  0.65495639  0.16711234     0.02300
H1505       H  0.79082310  0.67431760  0.15595042     0.02800
H1506       H  0.77172518  0.68459952  0.19045399     0.06300
H1507       H  0.86622044  0.63785791  0.11050537     0.05300
H1508       H  0.86511458  0.61330294  0.14296381    -0.00500
H1509       H  0.85058380  0.65161394  0.14554726     0.01000
H1510       H  0.72785958  0.56536214  0.10714517     0.04700
H1511       H  0.72471894  0.58960816  0.07499825     0.06600
H1512       H  0.71502214  0.60401158  0.11135192     0.07500
C1513       C  0.69352509  0.71873265  0.37274758    -0.22100
C1514       C  0.67195204  0.69857896  0.36095404     0.09800
C1515       C  0.68144639  0.67100904  0.34799894     0.10200
C1516       C  0.71242262  0.66387701  0.34761665    -0.17100
C1517       C  0.73447448  0.68370172  0.35979823    -0.27500
C1518       C  0.72468683  0.71183824  0.37230746     0.18600
C1519       C  0.63931852  0.70616315  0.36337856     0.12500
C1520       C  0.65878255  0.64898575  0.33479073    -0.11800
H1521       H  0.71930351  0.64244677  0.33775546     0.12800
C1522       C  0.74649067  0.73499416  0.38507429    -0.22700
H1523       H  0.68580656  0.73991621  0.38256840     0.08400
C1524       C  0.62251959  0.69874980  0.38951808     0.04800
C1525       C  0.59130139  0.70475815  0.39032034    -0.19900
C1526       C  0.57634372  0.71793612  0.36553167    -0.12200
C1527       C  0.59358832  0.72650228  0.33973012     0.13500
C1528       C  0.62487497  0.72026674  0.33896736    -0.22600
C1529       C  0.63754381  0.68418862  0.41642134    -0.05700
H1530       H  0.57832899  0.69850118  0.41024792     0.15000
C1531       C  0.57984457  0.74357228  0.31360886    -0.15900
H1532       H  0.63819380  0.72628518  0.31918426     0.09300
H1533       H  0.75876031  0.72526497  0.40470262     0.07200
H1534       H  0.73459278  0.75566872  0.39317316     0.08400
H1535       H  0.76287699  0.74222259  0.36733057     0.07500
H1536       H  0.64621476  0.66004151  0.31606413     0.02300
H1537       H  0.64241164  0.64172772  0.35252892     0.02800
H1538       H  0.66997677  0.62837650  0.32560390     0.06300
H1539       H  0.62109822  0.67972838  0.43499669     0.05300
H1540       H  0.65559495  0.69941976  0.42529209    -0.00500
H1541       H  0.64780686  0.66222428  0.40963125     0.01000
H1542       H  0.59748912  0.75142400  0.29738293     0.04700
H1543       H  0.56776660  0.76393994  0.32211308     0.06600
H1544       H  0.56407945  0.72888233  0.30074793     0.07500
C1545       C  0.90226815  0.80315447  0.29449578    -0.22100
C1546       C  0.87839007  0.82369283  0.29844384     0.09800
C1547       C  0.85113253  0.81384068  0.31205300     0.10200
C1548       C  0.84818080  0.78344770  0.32104045    -0.17100
C1549       C  0.87190417  0.76249372  0.31693031    -0.27500
C1550       C  0.89971992  0.77282163  0.30412762     0.18600
C1551       C  0.88228156  0.85560703  0.28853452     0.12500
C1552       C  0.82513398  0.83545063  0.31704341    -0.11800
H1553       H  0.82689700  0.77590262  0.33090568     0.12800
C1554       C  0.92771953  0.75338241  0.30146121    -0.22700
H1555       H  0.92334248  0.81107350  0.28445194     0.08400
C1556       C  0.89584550  0.87761765  0.30746538     0.04800
C1557       C  0.89613280  0.90818259  0.29837241    -0.19900
C1558       C  0.88358990  0.91697465  0.27061387    -0.12200
C1559       C  0.87171407  0.89462527  0.25089331     0.13500
C1560       C  0.87077177  0.86424695  0.26031261    -0.22600
C1561       C  0.90931440  0.86889207  0.33749866    -0.05700
H1562       H  0.90548746  0.92538578  0.31326564     0.15000
C1563       C  0.85997539  0.90204040  0.21982027    -0.15900
H1564       H  0.86075977  0.84719230  0.24565616     0.09300
H1565       H  0.94727045  0.76545388  0.31187987     0.07200
H1566       H  0.93290008  0.74925471  0.27720656     0.08400
H1567       H  0.92584835  0.73138624  0.31334016     0.07500
H1568       H  0.81730214  0.84456674  0.29499414     0.02300
H1569       H  0.83263748  0.85456610  0.33165449     0.02800
H1570       H  0.80552954  0.82413409  0.32823530     0.06300
H1571       H  0.91883983  0.88888514  0.34957741     0.05300
H1572       H  0.92791447  0.85231501  0.33392155    -0.00500
H1573       H  0.89157297  0.85846067  0.35208048     0.01000
H1574       H  0.87171715  0.88771766  0.20277102     0.04700
H1575       H  0.86427989  0.92595843  0.21353190     0.06600
H1576       H  0.83519361  0.89744017  0.21876945     0.07500
C1577       C  0.92556351  0.72804765  0.55307262    -0.22100
C1578       C  0.93984736  0.71798539  0.52673747     0.09800
C1579       C  0.97169061  0.71841816  0.52476456     0.10200
C1580       C  0.98865345  0.73048819  0.54872973    -0.17100
C1581       C  0.97461942  0.74238953  0.57493574    -0.27500
C1582       C  0.94236360  0.73929201  0.57758488     0.18600
C1583       C  0.92109233  0.70713225  0.50126995     0.12500
C1584       C  0.98779196  0.70586094  0.49735244    -0.11800
H1585       H  0.01297161  0.72974119  0.54664448     0.12800
C1586       C  0.92425816  0.74713552  0.60559008    -0.22700
H1587       H  0.90100447  0.72677074  0.55463575     0.08400
C1588       C  0.90969942  0.67719346  0.50025407     0.04800
C1589       C  0.89388467  0.66741532  0.47447569    -0.19900
C1590       C  0.88892738  0.68713583  0.45005222    -0.12200
C1591       C  0.90008635  0.71728126  0.45133286     0.13500
C1592       C  0.91596166  0.72692019  0.47706148    -0.22600
C1593       C  0.91477903  0.65552382  0.52609059    -0.05700
H1594       H  0.88552367  0.64426611  0.47325731     0.15000
C1595       C  0.89677122  0.73886584  0.42505511    -0.15900
H1596       H  0.92507759  0.74979913  0.47808034     0.09300
H1597       H  0.91041585  0.72715380  0.61245358     0.07200
H1598       H  0.93810095  0.75327821  0.62541869     0.08400
H1599       H  0.90874054  0.76628391  0.60053963     0.07500
H1600       H  0.98108079  0.71874975  0.47686987     0.02300
H1601       H  0.98162738  0.68158301  0.49430173     0.02800
H1602       H  0.01286330  0.70742280  0.49957045     0.06300
H1603       H  0.90465746  0.63285706  0.52148255     0.05300
H1604       H  0.90419955  0.66465769  0.54700977    -0.00500
H1605       H  0.93950341  0.65255056  0.52988030     0.01000
H1606       H  0.90830889  0.76090144  0.42942382     0.04700
H1607       H  0.87241226  0.74364736  0.42094514     0.06600
H1608       H  0.90702151  0.72878180  0.40439296     0.07500
C1609       C  0.97563095  0.55518335  0.30997151    -0.22100
C1610       C  0.99772563  0.57080157  0.29333659     0.09800
C1611       C  0.99499560  0.60230838  0.28865449     0.10200
C1612       C  0.96999358  0.61765761  0.30096739    -0.17100
C1613       C  0.94766907  0.60211073  0.31773516    -0.27500
C1614       C  0.95048872  0.57031989  0.32213673     0.18600
C1615       C  0.02306568  0.55324324  0.28036168     0.12500
C1616       C  0.01821348  0.61953958  0.27032923    -0.11800
H1617       H  0.96773890  0.64187135  0.29727715     0.12800
C1618       C  0.92654525  0.55178795  0.33827179    -0.22700
H1619       H  0.97793961  0.53087893  0.31304959     0.08400
C1620       C  0.04982634  0.54818417  0.29674070     0.04800
C1621       C  0.07280326  0.53041367  0.28390465    -0.19900
C1622       C  0.06990765  0.51710512  0.25486398    -0.12200
C1623       C  0.04196061  0.52174728  0.23903318     0.13500
C1624       C  0.01933005  0.53994624  0.25196782    -0.22600
C1625       C  0.05390396  0.56133062  0.32800682    -0.05700
H1626       H  0.09271757  0.52701988  0.29755725     0.15000
C1627       C  0.03430425  0.50815904  0.20855525    -0.15900
H1628       H  0.99821704  0.54354905  0.23986230     0.09300
H1629       H  0.92519594  0.55862884  0.36240399     0.07200
H1630       H  0.93174580  0.52713209  0.33771465     0.08400
H1631       H  0.90416583  0.55504956  0.32721774     0.07500
H1632       H  0.01919100  0.61015873  0.24702045     0.02300
H1633       H  0.04091694  0.61746181  0.28095977     0.02800
H1634       H  0.01259080  0.64405158  0.26875913     0.06300
H1635       H  0.07622630  0.55523262  0.33791213     0.05300
H1636       H  0.03584600  0.55256619  0.34327432    -0.00500
H1637       H  0.05249287  0.58646080  0.32706262     0.01000
H1638       H  0.01341795  0.49409982  0.21065542     0.04700
H1639       H  0.05198004  0.49352573  0.19879992     0.06600
H1640       H  0.02996731  0.52669285  0.19210716     0.07500
C1641       C  0.79340876  0.49710726  0.39792186    -0.22100
C1642       C  0.79084086  0.49859810  0.42955014     0.09800
C1643       C  0.80076219  0.52494687  0.44486215     0.10200
C1644       C  0.81235722  0.54947025  0.42814553    -0.17100
C1645       C  0.81405161  0.54849449  0.39642133    -0.27500
C1646       C  0.80514259  0.52161634  0.38112147     0.18600
C1647       C  0.77625034  0.47309571  0.44620394     0.12500
C1648       C  0.79818147  0.52761931  0.47877599    -0.11800
H1649       H  0.81931830  0.56995996  0.43988988     0.12800
C1650       C  0.80854600  0.51750293  0.34741122    -0.22700
H1651       H  0.78611963  0.47667821  0.38626286     0.08400
C1652       C  0.74449493  0.46950102  0.44651099     0.04800
C1653       C  0.73136706  0.44611483  0.46374017    -0.19900
C1654       C  0.74905104  0.42590794  0.48117803    -0.12200
C1655       C  0.78092213  0.43185111  0.48297322     0.13500
C1656       C  0.79406926  0.45416144  0.46427461    -0.22600
C1657       C  0.72430399  0.49106970  0.42940835    -0.05700
H1658       H  0.70692439  0.44488299  0.46432788     0.15000
C1659       C  0.80199480  0.41665530  0.50516810    -0.15900
H1660       H  0.81841248  0.45792224  0.46499626     0.09300
H1661       H  0.78583409  0.51415900  0.33704842     0.07200
H1662       H  0.82258866  0.49710594  0.34283931     0.08400
H1663       H  0.81988638  0.53692547  0.33614281     0.07500
H1664       H  0.81223298  0.50996251  0.48981439     0.02300
H1665       H  0.77412149  0.52469006  0.48578331     0.02800
H1666       H  0.80613287  0.55011346  0.48699549     0.06300
H1667       H  0.69986816  0.48561032  0.43261025     0.05300
H1668       H  0.72939099  0.48981689  0.40483519    -0.00500
H1669       H  0.72822820  0.51463912  0.43749088     0.01000
H1670       H  0.81813259  0.40181482  0.49278293     0.04700
H1671       H  0.79016056  0.40329433  0.52276953     0.06600
H1672       H  0.81518007  0.43425986  0.51752162     0.07500
C1673       C  0.14009889  0.31334764  0.17785343    -0.22100
C1674       C  0.11441820  0.32057348  0.19510032     0.09800
C1675       C  0.09360937  0.29751736  0.20310959     0.10200
C1676       C  0.09933763  0.26747443  0.19405920    -0.17100
C1677       C  0.12549385  0.26008438  0.17739453    -0.27500
C1678       C  0.14586493  0.28350740  0.16864692     0.18600
C1679       C  0.11034884  0.35257667  0.20447915     0.12500
C1680       C  0.06584849  0.30452125  0.22174276    -0.11800
H1681       H  0.08368187  0.24956901  0.20055731     0.12800
C1682       C  0.17327745  0.27839745  0.14872744    -0.22700
H1683       H  0.15571914  0.33129934  0.17131910     0.08400
C1684       C  0.12938189  0.36578461  0.22651648     0.04800
C1685       C  0.12790113  0.39709140  0.23166501    -0.19900
C1686       C  0.10740549  0.41544937  0.21589032    -0.12200
C1687       C  0.08758437  0.40210185  0.19447860     0.13500
C1688       C  0.08931244  0.37071590  0.18907474    -0.22600
C1689       C  0.15135233  0.34689253  0.24453111    -0.05700
H1690       H  0.14333991  0.40741385  0.24767011     0.15000
C1691       C  0.06558099  0.42029743  0.17584992    -0.15900
H1692       H  0.07496764  0.36051366  0.17190837     0.09300
H1693       H  0.19424987  0.28375173  0.16161130     0.07200
H1694       H  0.17208790  0.29369494  0.12879415     0.08400
H1695       H  0.17500253  0.25500519  0.13978520     0.07500
H1696       H  0.05113241  0.32071989  0.20940768     0.02300
H1697       H  0.07276371  0.31473127  0.24366585     0.02800
H1698       H  0.05228987  0.28375695  0.22655329     0.06300
H1699       H  0.16378170  0.36076524  0.26150883     0.05300
H1700       H  0.16837534  0.33638283  0.22928433    -0.00500
H1701       H  0.13877608  0.32875531  0.25676357     0.01000
H1702       H  0.07059406  0.41697986  0.15143074     0.04700
H1703       H  0.06682210  0.44493565  0.18050352     0.06600
H1704       H  0.04205977  0.41242906  0.18053888     0.07500
C1705       C  0.17926409  0.08926477  0.29594007    -0.22100
C1706       C  0.19422795  0.11137124  0.31309458     0.09800
C1707       C  0.20341933  0.13875632  0.29937745     0.10200
C1708       C  0.19712126  0.14358692  0.26867383    -0.17100
C1709       C  0.18163105  0.12173752  0.25113799    -0.27500
C1710       C  0.17277349  0.09392842  0.26517000     0.18600
C1711       C  0.19959368  0.10573746  0.34565211     0.12500
C1712       C  0.21941006  0.16312851  0.31733529    -0.11800
H1713       H  0.20414217  0.16485753  0.25849123     0.12800
C1714       C  0.15629028  0.06895448  0.24846494    -0.22700
H1715       H  0.17239274  0.06830554  0.30688412     0.08400
C1716       C  0.17663605  0.11071284  0.36731497     0.04800
C1717       C  0.18356641  0.10785536  0.39809815    -0.19900
C1718       C  0.21294106  0.10026297  0.40782474    -0.12200
C1719       C  0.23555371  0.09364091  0.38590487     0.13500
C1720       C  0.22851613  0.09664264  0.35504562    -0.22600
C1721       C  0.14514179  0.12007979  0.35799353    -0.05700
H1722       H  0.16610140  0.11253763  0.41475442     0.15000
C1723       C  0.26741017  0.08470960  0.39450493    -0.15900
H1724       H  0.24584707  0.09258712  0.33807546     0.09300
H1725       H  0.15148316  0.04912654  0.26326819     0.07200
H1726       H  0.17042807  0.06073540  0.22933106     0.08400
H1727       H  0.13413348  0.07737250  0.24003853     0.07500
H1728       H  0.24112385  0.15423458  0.32637270     0.02300
H1729       H  0.20480374  0.17046370  0.33648674     0.02800
H1730       H  0.22465776  0.18337769  0.30326918     0.06300
H1731       H  0.13005340  0.12349532  0.37787775     0.05300
H1732       H  0.13486289  0.10222089  0.34349429    -0.00500
H1733       H  0.14624384  0.14172680  0.34516496     0.01000
H1734       H  0.26722975  0.06202049  0.40530120     0.04700
H1735       H  0.27747500  0.10159566  0.41019332     0.06600
H1736       H  0.28248351  0.08320700  0.37437752     0.07500
C1737       C  0.30625919  0.21543545  0.12766291    -0.22100
C1738       C  0.32164143  0.19900652  0.10526247     0.09800
C1739       C  0.30529023  0.17866043  0.08669941     0.10200
C1740       C  0.27418097  0.17400654  0.09209462    -0.17100
C1741       C  0.25892510  0.18922536  0.11563572    -0.27500
C1742       C  0.27506497  0.21117095  0.13287840     0.18600
C1743       C  0.35515305  0.20203348  0.10313239     0.12500
C1744       C  0.32062486  0.16187829  0.06118994    -0.11800
H1745       H  0.26197922  0.15756359  0.07844582     0.12800
C1746       C  0.25971944  0.23063535  0.15643341    -0.22700
H1747       H  0.31896041  0.23119128  0.14167075     0.08400
C1748       C  0.36934178  0.22887399  0.09278696     0.04800
C1749       C  0.40115655  0.23102203  0.09326761    -0.19900
C1750       C  0.41918233  0.20696131  0.10384377    -0.12200
C1751       C  0.40483311  0.17938892  0.11224956     0.13500
C1752       C  0.37306955  0.17763974  0.11265086    -0.22600
C1753       C  0.35099444  0.25529398  0.08142138    -0.05700
H1754       H  0.41191677  0.25219435  0.08670443     0.15000
C1755       C  0.42209544  0.15097431  0.11962620    -0.15900
H1756       H  0.36213172  0.15687829  0.12021934     0.09300
H1757       H  0.27530668  0.24830195  0.16550582     0.07200
H1758       H  0.25217111  0.21654947  0.17584986     0.08400
H1759       H  0.23995576  0.24239528  0.14625353     0.07500
H1760       H  0.33841076  0.14660435  0.07018862     0.02300
H1761       H  0.33118033  0.17841552  0.04535228     0.02800
H1762       H  0.30426358  0.14774486  0.04820697     0.06300
H1763       H  0.36576429  0.27412279  0.07333480     0.05300
H1764       H  0.33641333  0.26431734  0.09981146    -0.00500
H1765       H  0.33649030  0.24781400  0.06227493     0.01000
H1766       H  0.41964082  0.14553531  0.14404031     0.04700
H1767       H  0.44628974  0.15307219  0.11369347     0.06600
H1768       H  0.41306529  0.13173979  0.10604499     0.07500
C1769       C  0.95386349  0.02668534  0.18652140    -0.22100
C1770       C  0.96552017  0.05283088  0.20033178     0.09800
C1771       C  0.95205821  0.06354646  0.22711152     0.10200
C1772       C  0.92823118  0.04708555  0.24036599    -0.17100
C1773       C  0.91779550  0.01913231  0.22836027    -0.27500
C1774       C  0.93000195  0.00984208  0.19977444     0.18600
C1775       C  0.99329419  0.06756689  0.18795755     0.12500
C1776       C  0.96339430  0.09213750  0.24222810    -0.11800
H1777       H  0.91792233  0.05700813  0.26007129     0.12800
C1778       C  0.91829663  0.98255787  0.18245698    -0.22700
H1779       H  0.96403426  0.01908083  0.16548904     0.08400
C1780       C  0.02222660  0.05576626  0.19444214     0.04800
C1781       C  0.04819783  0.07196020  0.18551826    -0.19900
C1782       C  0.04625152  0.10000587  0.17027586    -0.12200
C1783       C  0.01695952  0.11145240  0.16313678     0.13500
C1784       C  0.99093250  0.09499605  0.17206731    -0.22600
C1785       C  0.02570728  0.02639330  0.21157274    -0.05700
H1786       H  0.07025196  0.06274266  0.19112590     0.15000
C1787       C  0.01261986  0.14073821  0.14608123    -0.15900
H1788       H  0.96853433  0.10387483  0.16725695     0.09300
H1789       H  0.92248673  0.96118984  0.19481313     0.07200
H1790       H  0.92982300  0.98018147  0.16020222     0.08400
H1791       H  0.89375484  0.98484627  0.17767876     0.07500
H1792       H  0.96056318  0.11176812  0.22676972     0.02300
H1793       H  0.98778802  0.08968071  0.24800437     0.02800
H1794       H  0.95080332  0.09713870  0.26344700     0.06300
H1795       H  0.04994171  0.02058700  0.21523078     0.05300
H1796       H  0.01504042  0.00755547  0.19866370    -0.00500
H1797       H  0.01457359  0.02827845  0.23406316     0.01000
H1798       H  0.98825943  0.14531999  0.14156949     0.04700
H1799       H  0.02448235  0.13956145  0.12391375     0.06600
H1800       H  0.02155637  0.16006871  0.15954721     0.07500
C1801       C  0.06080996  0.20705187  0.93501016    -0.22100
C1802       C  0.04717302  0.20049258  0.96280671     0.09800
C1803       C  0.01542572  0.20186669  0.96566867     0.10200
C1804       C  0.99815804  0.21273299  0.94144326    -0.17100
C1805       C  0.01190672  0.22301272  0.91438609    -0.27500
C1806       C  0.04363080  0.21745149  0.91040702     0.18600
C1807       C  0.06659142  0.19383411  0.98915926     0.12500
C1808       C  0.99978852  0.19216598  0.99450811    -0.11800
H1809       H  0.97397269  0.21346913  0.94457250     0.12800
C1810       C  0.06004344  0.22231168  0.88065639    -0.22700
H1811       H  0.08521540  0.20471072  0.93284326     0.08400
C1812       C  0.08084823  0.16549256  0.99287741     0.04800
C1813       C  0.09809315  0.16023389  0.01900220    -0.19900
C1814       C  0.10091530  0.18257176  0.04150488    -0.12200
C1815       C  0.08737015  0.21132515  0.03724712     0.13500
C1816       C  0.07033585  0.21653027  0.01107953    -0.22600
C1817       C  0.07696336  0.14056521  0.96985301    -0.05700
H1818       H  0.10842983  0.13820598  0.02245161     0.15000
C1819       C  0.09081974  0.23719065  0.05940016    -0.15900
H1820       H  0.05966974  0.23844214  0.00779910     0.09300
H1821       H  0.05026533  0.20740164  0.86296503     0.07200
H1822       H  0.08447551  0.21639376  0.88236147     0.08400
H1823       H  0.05911008  0.24623044  0.87316785     0.07500
H1824       H  0.00727248  0.20672982  0.01360602     0.02300
H1825       H  0.00548770  0.16816040  0.99955125     0.02800
H1826       H  0.97470371  0.19396026  0.99278403     0.06300
H1827       H  0.08902937  0.11955819  0.97666063     0.05300
H1828       H  0.08622127  0.14798918  0.94767502    -0.00500
H1829       H  0.05247999  0.13502776  0.96732218     0.01000
H1830       H  0.10043632  0.25726521  0.04752206     0.04700
H1831       H  0.10623105  0.23194338  0.07845386     0.06600
H1832       H  0.06822734  0.24328084  0.06875570     0.07500
C1833       C  0.22401369  0.94500899  0.06169597    -0.22100
C1834       C  0.21258330  0.97079242  0.04738567     0.09800
C1835       C  0.21013895  0.97141693  0.01573246     0.10200
C1836       C  0.22088228  0.94682650  0.99883616    -0.17100
C1837       C  0.23491177  0.92152109  0.01261439    -0.27500
C1838       C  0.23460683  0.92008032  0.04494401     0.18600
C1839       C  0.20396013  0.99743570  0.06569182     0.12500
C1840       C  0.19605783  0.99814517  0.99974160    -0.11800
H1841       H  0.21752743  0.94792483  0.97479401     0.12800
C1842       C  0.24506376  0.89305648  0.06315327    -0.22700
H1843       H  0.22487744  0.94443196  0.08622311     0.08400
C1844       C  0.17540557  0.99942462  0.07997314     0.04800
C1845       C  0.16752113  0.02634344  0.09494894    -0.19900
C1846       C  0.18744122  0.05130006  0.09553443    -0.12200
C1847       C  0.21655231  0.04881337  0.08211313     0.13500
C1848       C  0.22431603  0.02188303  0.06720140    -0.22600
C1849       C  0.15300610  0.97354878  0.07857477    -0.05700
H1850       H  0.14527991  0.02832279  0.10531737     0.15000
C1851       C  0.24027510  0.07358475  0.08359454    -0.15900
H1852       H  0.24635231  0.02000064  0.05636285     0.09300
H1853       H  0.22620603  0.88523682  0.07798535     0.07200
H1854       H  0.26453169  0.89983816  0.07761802     0.08400
H1855       H  0.25208186  0.87330574  0.04952046     0.07500
H1856       H  0.20937192  0.01905843  0.00444984     0.02300
H1857       H  0.17238832  0.00131817  0.00781173     0.02800
H1858       H  0.19544211  0.99488773  0.97482339     0.06300
H1859       H  0.13154060  0.97905744  0.09059125     0.05300
H1860       H  0.16292338  0.95308425  0.08929710    -0.00500
H1861       H  0.14745023  0.96838546  0.05461417     0.01000
H1862       H  0.26140345  0.06433274  0.09363597     0.04700
H1863       H  0.23344451  0.09316879  0.09773408     0.06600
H1864       H  0.24540285  0.08184115  0.06039410     0.07500
loop_ 
_geom_bond_atom_site_label_1 
_geom_bond_atom_site_label_2 
_geom_bond_distance 
_geom_bond_site_symmetry_2 
_ccdc_geom_bond_type 
Zn1           O5   1.944       .  S
Zn1           O6   2.016       .  S
Zn1          O10   2.018       .  S
Zn1          O17   2.006       .  S
Zn2           O5   1.958       .  S
Zn2           O7   2.004       .  S
Zn2           O9   2.026       .  S
Zn2          O13   2.015       .  S
Zn3           O5   1.945       .  S
Zn3           O8   2.008       .  S
Zn3          O11   2.005       .  S
Zn3          O14   2.008       .  S
Zn4           O5   1.957       .  S
Zn4          O12   2.041       .  S
Zn4          O15   2.002       .  S
Zn4          O16   2.024       .  S
O6           C18   1.273       .  A
O7           C19   1.272       .  A
O8           C20   1.271       .  A
O9           C18   1.275       .  A
O10          C20   1.275       .  A
O11          C19   1.272       .  A
O12          C21   1.275       .  A
O13          C22   1.274       .  A
O14          C21   1.273       .  A
O15          C22   1.273       .  A
O16          C23   1.275       .  A
O17          C23   1.273       .  A
C18        C1741   1.490       .  S
C19        C1846   1.470       .  S
C20        C1709   1.496       .  S
C21        C1782   1.498       .  S
C22        C1814   1.469       .  S
C23        C1677   1.476       .  S
Zn24         O28   1.945       .  S
Zn24         O29   2.012       .  S
Zn24         O33   2.012       .  S
Zn24         O40   2.022       .  S
Zn25         O28   1.953       .  S
Zn25         O30   2.014       .  S
Zn25         O32   2.028       .  S
Zn25         O36   2.000       .  S
Zn26         O28   1.939       .  S
Zn26         O31   2.004       .  S
Zn26         O34   2.001       .  S
Zn26         O37   2.012       .  S
Zn27         O28   1.948       .  S
Zn27         O35   2.035       .  S
Zn27         O38   2.015       .  S
Zn27         O39   2.012       .  S
O29          C41   1.273       .  A
O30          C42   1.274       .  A
O31          C43   1.273       .  A
O32          C41   1.274       .  A
O33          C43   1.274       .  A
O34          C42   1.272       .  A
O35          C44   1.275       .  A
O36          C45   1.271       .  A
O37          C44   1.272       .  A
O38          C45   1.273       .  A
O39          C46   1.275       .  A
O40          C46   1.274       .  A
C41        C1549   1.488       .  S
C42        C1613   1.480       .  S
C43        C1590   1.472       .  S
C44        C1645   1.481       .  S
C45        C1485   1.463       .  S
C46        C1517   1.496       .  S
C47          C48   1.532   1_655  S
C47          C53   1.533       .  S
C47          C51   1.551       .  S
C47        C1805   1.539   1_655  S
C48          H55   1.087       .  S
C48          C49   1.361   1_455  D
C49          C50   1.540       .  S
C49        C1389   1.485   1_655  S
C50          C54   1.545       .  S
C50          C52   1.539       .  S
C50          H56   1.107       .  S
C51          H57   1.080       .  S
C51          C52   1.365       .  D
C52        C1421   1.484       .  S
C53          H58   1.085       .  S
C53          C54   1.367       .  D
C54        C1453   1.492       .  S
C59          C60   1.545       .  S
C59          C65   1.542       .  S
C59          C63   1.542       .  S
C59        C1654   1.544       .  S
C60          H67   1.083       .  S
C60          C61   1.361       .  D
C61          C62   1.534       .  S
C61        C1293   1.478       .  S
C62          C66   1.536       .  S
C62          C64   1.542       .  S
C62          H68   1.109       .  S
C63          H69   1.081       .  S
C63          C64   1.370       .  D
C64        C1325   1.499       .  S
C65          H70   1.086       .  S
C65          C66   1.366       .  D
C66        C1357   1.487       .  S
C71          C72   1.536       .  S
C71          C77   1.534       .  S
C71          C75   1.556   1_565  S
C71        C1174   1.541       .  S
C72          H79   1.087       .  S
C72          C73   1.366       .  D
C73          C74   1.537   1_565  S
C73        C1206   1.481       .  S
C74          C78   1.535       .  S
C74          C76   1.531       .  S
C74          H80   1.111       .  S
C75          H81   1.080       .  S
C75          C76   1.366       .  D
C76        C1261   1.481       .  S
C77          H82   1.086       .  S
C77          C78   1.363   1_565  D
C78        C1229   1.477       .  S
Zn83         O87   1.943       .  S
Zn83         O88   2.012       .  S
Zn83         O92   2.008       .  S
Zn83         O99   2.008       .  S
Zn84         O87   1.959       .  S
Zn84         O89   2.030       .  S
Zn84         O91   2.035       .  S
Zn84         O95   2.018       .  S
Zn85         O87   1.960       .  S
Zn85         O90   2.020       .  S
Zn85         O93   2.013       .  S
Zn85         O96   2.026       .  S
Zn86         O87   1.960       .  S
Zn86         O94   2.011       .  S
Zn86         O97   2.028       .  S
Zn86         O98   2.035       .  S
O88         C100   1.274       .  A
O89         C101   1.276       .  A
O90         C102   1.273       .  A
O91         C100   1.274       .  A
O92         C102   1.272       .  A
O93         C101   1.272       .  A
O94         C103   1.272       .  A
O95         C104   1.274       .  A
O96         C103   1.276       .  A
O97         C104   1.275       .  A
O98         C105   1.274       .  A
O99         C105   1.274       .  A
C100       C1133   1.498   1_545  S
C101       C1462   1.499       .  S
C102       C1101   1.468   1_655  S
C103       C1366   1.497       .  S
C104       C1238   1.477       .  S
C105       C1069   1.495       .  S
Zn106       O110   1.944       .  S
Zn106       O111   2.016       .  S
Zn106       O115   2.011       .  S
Zn106       O122   1.996       .  S
Zn107       O110   1.944       .  S
Zn107       O112   1.990       .  S
Zn107       O114   2.013       .  S
Zn107       O118   2.008       .  S
Zn108       O110   1.965       .  S
Zn108       O113   2.027       .  S
Zn108       O116   2.036       .  S
Zn108       O119   2.054       .  S
Zn109       O110   1.943       .  S
Zn109       O117   1.997       .  S
Zn109       O120   2.009       .  S
Zn109       O121   2.024       .  S
O111        C123   1.272       .  A
O112        C124   1.270       .  A
O113        C125   1.274       .  A
O114        C123   1.273       .  A
O115        C125   1.273       .  A
O116        C124   1.277       .  A
O117        C126   1.270       .  A
O118        C127   1.272       .  A
O119        C126   1.279       .  A
O120        C127   1.273       .  A
O121        C128   1.274       .  A
O122        C128   1.272       .  A
C123        C973   1.485       .  S
C124       C1037   1.490       .  S
C125       C1334   1.469       .  S
C126       C1270   1.501       .  S
C127       C1005   1.469       .  S
C128       C1430   1.473       .  S
C129        C130   1.540   1_556  S
C129        C135   1.534       .  S
C129        C133   1.550       .  S
C129       C1837   1.540   1_556  S
C130        H137   1.086       .  S
C130        C131   1.368   1_554  D
C131        C132   1.539       .  S
C131        C877   1.492       .  S
C132        C136   1.534       .  S
C132        C134   1.535       .  S
C132        H138   1.111       .  S
C133        H139   1.080       .  S
C133        C134   1.361       .  D
C134        C909   1.477       .  S
C135        H140   1.086   1_556  S
C135        C136   1.364       .  D
C136        C950   1.476       .  S
C141        C142   1.536       .  S
C141        C147   1.548       .  S
C141        C145   1.540       .  S
C141       C1046   1.538       .  S
C142        H149   1.087       .  S
C142        C143   1.363       .  D
C143        C144   1.536       .  S
C143        C781   1.482       .  S
C144        C148   1.531       .  S
C144        C146   1.532       .  S
C144        H150   1.111       .  S
C145        H151   1.086       .  S
C145        C146   1.365       .  D
C146        C813   1.476       .  S
C147        H152   1.080       .  S
C147        C148   1.365       .  D
C148        C854   1.475       .  S
C153        C154   1.534       .  S
C153        C159   1.531       .  S
C153        C157   1.553   1_655  S
C153       C1581   1.537       .  S
C154        H161   1.086       .  S
C154        C155   1.366       .  D
C155        C156   1.541   1_655  S
C155       C1142   1.486       .  S
C156        C160   1.539       .  S
C156        C158   1.533       .  S
C156        H162   1.110       .  S
C157        H163   1.081       .  S
C157        C158   1.365       .  D
C158        C749   1.477       .  S
C159        H164   1.087       .  S
C159        C160   1.362   1_655  D
C160        C726   1.480       .  S
Zn165       O169   1.957       .  S
Zn165       O170   2.023       .  S
Zn165       O174   2.033       .  S
Zn165       O181   2.032       .  S
Zn166       O169   1.953       .  S
Zn166       O171   2.014       .  S
Zn166       O173   2.031       .  S
Zn166       O177   2.030       .  S
Zn167       O169   1.960       .  S
Zn167       O172   2.003       .  S
Zn167       O175   2.035       .  S
Zn167       O178   2.032       .  S
Zn168       O169   1.939       .  S
Zn168       O176   1.990       .  S
Zn168       O179   2.002       .  S
Zn168       O180   2.008       .  S
O170        C182   1.276       .  A
O171        C183   1.274       .  A
O172        C184   1.273       .  A
O173        C182   1.275       .  A
O174        C184   1.276       .  A
O175        C183   1.275       .  A
O176        C185   1.270       .  A
O177        C186   1.276       .  A
O178        C185   1.275       .  A
O179        C186   1.271       .  A
O180        C187   1.273       .  A
O181        C187   1.274       .  A
C182        C653   1.497   1_455  S
C183        C685   1.483   1_556  S
C184       C1398   1.481       .  S
C185        C845   1.470       .  S
C186        C941   1.489       .  S
C187        C717   1.496       .  S
C188        C189   1.541       .  S
C188        C194   1.530       .  S
C188        C192   1.544       .  S
C188       C1014   1.539       .  S
C189        H196   1.083       .  S
C189        C190   1.366       .  D
C190        C191   1.543       .  S
C190        C598   1.491       .  S
C191        C195   1.544       .  S
C191        C193   1.541       .  S
C191        H197   1.109       .  S
C192        H198   1.086       .  S
C192        C193   1.366       .  D
C193       C1750   1.491       .  S
C194        H199   1.086       .  S
C194        C195   1.364       .  D
C195        C630   1.487       .  S
C200        C201   1.545       .  S
C200        C206   1.534       .  S
C200        C204   1.547       .  S
C200        C525   1.541       .  S
C201        H208   1.083       .  S
C201        C202   1.359       .  D
C202        C203   1.529       .  S
C202       C1110   1.477       .  S
C203        C207   1.538       .  S
C203        C205   1.540       .  S
C203        H209   1.107       .  S
C204        H210   1.083       .  S
C204        C205   1.371       .  D
C205       C1718   1.488       .  S
C206        H211   1.086       .  S
C206        C207   1.366       .  D
C207        C566   1.491       .  S
C212        C213   1.536       .  S
C212        C218   1.549       .  S
C212        C216   1.545       .  S
C212       C1622   1.541       .  S
C213        H220   1.087       .  S
C213        C214   1.364       .  D
C214        C215   1.538       .  S
C214        C694   1.484       .  S
C215        C219   1.535       .  S
C215        C217   1.532       .  S
C215        H221   1.111       .  S
C216        H222   1.086       .  S
C216        C217   1.366       .  D
C217       C1686   1.478       .  S
C218        H223   1.082       .  S
C218        C219   1.362       .  D
C219        C502   1.480       .  S
Zn224       O228   1.964       .  S
Zn224       O229   2.019       .  S
Zn224       O233   2.033       .  S
Zn224       O240   2.042       .  S
Zn225       O228   1.954       .  S
Zn225       O230   2.004       .  S
Zn225       O232   2.018       .  S
Zn225       O236   2.025       .  S
Zn226       O228   1.959       .  S
Zn226       O231   2.015       .  S
Zn226       O234   2.026       .  S
Zn226       O237   2.030       .  S
Zn227       O228   1.935       .  S
Zn227       O235   2.006       .  S
Zn227       O238   2.009       .  S
Zn227       O239   1.998       .  S
O229        C241   1.273       .  A
O230        C242   1.270       .  A
O231        C243   1.273       .  A
O232        C241   1.275       .  A
O233        C243   1.278       .  A
O234        C242   1.276       .  A
O235        C244   1.273       .  A
O236        C245   1.273       .  A
O237        C244   1.274       .  A
O238        C245   1.272       .  A
O239        C246   1.271       .  A
O240        C246   1.276       .  A
C241        C493   1.480       .  S
C242        C557   1.494       .  S
C243        C621   1.499       .  S
C244       C1302   1.477       .  S
C245        C790   1.470       .  S
C246        C461   1.490       .  S
Zn247       O251   1.931       .  S
Zn247       O252   1.991       .  S
Zn247       O256   2.001       .  S
Zn247       O263   1.998       .  S
Zn248       O251   1.958       .  S
Zn248       O253   2.007       .  S
Zn248       O255   2.030       .  S
Zn248       O259   2.029       .  S
Zn249       O251   1.949       .  S
Zn249       O254   2.016       .  S
Zn249       O257   2.020       .  S
Zn249       O260   2.010       .  S
Zn250       O251   1.952       .  S
Zn250       O258   2.044       .  S
Zn250       O261   2.009       .  S
Zn250       O262   2.047       .  S
O252        C264   1.271       .  A
O253        C265   1.273       .  A
O254        C266   1.272       .  A
O255        C264   1.274       .  A
O256        C266   1.273       .  A
O257        C265   1.274       .  A
O258        C267   1.278       .  A
O259        C268   1.275       .  A
O260        C267   1.274       .  A
O261        C268   1.275       .  A
O262        C269   1.276       .  A
O263        C269   1.272       .  A
C264        C918   1.472       .  S
C265       C1165   1.470       .  S
C266        C822   1.493       .  S
C267        C429   1.482       .  S
C268        C534   1.489       .  S
C269        C758   1.481       .  S
C270        C271   1.548       .  S
C270        C276   1.539   1_545  S
C270        C274   1.544   1_545  S
C270       C1773   1.549       .  S
C271        H278   1.081       .  S
C271        C272   1.364   1_545  D
C272        C273   1.537       .  S
C272       C1078   1.488       .  S
C273        C277   1.538       .  S
C273        C275   1.535       .  S
C273        H279   1.111       .  S
C274        H280   1.085       .  S
C274        C275   1.365       .  D
C275       C1558   1.478       .  S
C276        H281   1.086   1_565  S
C276        C277   1.366       .  D
C277        C397   1.487       .  S
C282        C283   1.533       .  S
C282        C288   1.535       .  S
C282        C286   1.555       .  S
C282        C438   1.548       .  S
C283        H290   1.086       .  S
C283        C284   1.361       .  D
C284        C285   1.537       .  S
C284        C470   1.484       .  S
C285        C289   1.543       .  S
C285        C287   1.537       .  S
C285        H291   1.106       .  S
C286        H292   1.080       .  S
C286        C287   1.370       .  D
C287       C1526   1.492       .  S
C288        H293   1.086       .  S
C288        C289   1.368       .  D
C289        C374   1.491       .  S
C294        C295   1.532       .  S
C294        C300   1.534   1_556  S
C294        C298   1.556   1_556  S
C294        C982   1.539       .  S
C295        H302   1.087       .  S
C295        C296   1.362   1_556  D
C296        C297   1.542       .  S
C296        C662   1.479       .  S
C297        C301   1.538       .  S
C297        C299   1.536       .  S
C297        H303   1.111       .  S
C298        H304   1.081       .  S
C298        C299   1.367       .  D
C299       C1494   1.487       .  S
C300        H305   1.087   1_554  S
C300        C301   1.363       .  D
C301        C342   1.484       .  S
Zn306       O310   1.964       .  S
Zn306       O311   2.010       .  S
Zn306       O315   2.028       .  S
Zn306       O322   2.030       .  S
Zn307       O310   1.955       .  S
Zn307       O312   2.012       .  S
Zn307       O314   2.014       .  S
Zn307       O318   2.019       .  S
Zn308       O310   1.945       .  S
Zn308       O313   2.000       .  S
Zn308       O316   2.015       .  S
Zn308       O319   2.010       .  S
Zn309       O310   1.942       .  S
Zn309       O317   2.032       .  S
Zn309       O320   2.016       .  S
Zn309       O321   2.001       .  S
O311        C323   1.271       .  A
O312        C324   1.272       .  A
O313        C325   1.272       .  A
O314        C323   1.273       .  A
O315        C325   1.276       .  A
O316        C324   1.273       .  A
O317        C326   1.276       .  A
O318        C327   1.274       .  A
O319        C326   1.272       .  A
O320        C327   1.274       .  A
O321        C328   1.272       .  A
O322        C328   1.275       .  A
C323        C365   1.468       .  S
C324        C406   1.472       .  S
C325        C333   1.473       .  S
C326       C1197   1.492   1_554  S
C327        C589   1.474       .  S
C328        C886   1.489       .  S
C329        C330   1.400       .  A
C329        C334   1.402       .  A
C329        H339   1.085       .  S
C330        C335   1.481       .  S
C330        C331   1.413       .  A
C331        C336   1.507   1_554  S
C331        C332   1.403       .  A
C332        C333   1.402       .  A
C332        H337   1.084       .  S
C333        C334   1.418       .  A
C334        C338   1.510       .  S
C335        C340   1.412       .  A
C335        C344   1.397       .  A
C336        H352   1.109   1_556  S
C336        H353   1.110       .  S
C336        H354   1.111       .  S
C338        H349   1.110       .  S
C338        H350   1.111       .  S
C338        H351   1.107       .  S
C340        C345   1.505       .  S
C340        C341   1.408       .  A
C341        C342   1.404       .  A
C341        H346   1.084       .  S
C342        C343   1.420       .  A
C343        C347   1.507       .  S
C343        C344   1.398       .  A
C344        H348   1.085       .  S
C345        H355   1.111       .  S
C345        H356   1.110       .  S
C345        H357   1.110   1_554  S
C347        H358   1.111       .  S
C347        H359   1.100       .  S
C347        H360   1.110       .  S
C361        C362   1.401       .  A
C361        C366   1.403       .  A
C361        H371   1.084       .  S
C362        C367   1.478       .  S
C362        C363   1.412       .  A
C363        C368   1.508       .  S
C363        C364   1.402       .  A
C364        C365   1.401       .  A
C364        H369   1.084       .  S
C365        C366   1.415       .  A
C366        C370   1.508       .  S
C367        C372   1.408       .  A
C367        C376   1.401       .  A
C368        H384   1.110       .  S
C368        H385   1.109       .  S
C368        H386   1.111       .  S
C370        H381   1.110       .  S
C370        H382   1.110       .  S
C370        H383   1.108       .  S
C372        C377   1.508       .  S
C372        C373   1.400       .  A
C373        C374   1.408       .  A
C373        H378   1.083       .  S
C374        C375   1.417       .  A
C375        C379   1.506       .  S
C375        C376   1.405       .  A
C376        H380   1.084       .  S
C377        H387   1.111       .  S
C377        H388   1.110       .  S
C377        H389   1.109       .  S
C379        H390   1.111       .  S
C379        H391   1.107       .  S
C379        H392   1.110       .  S
C393        C394   1.402       .  A
C393        C398   1.406       .  A
C393        H403   1.084       .  S
C394        C399   1.481       .  S
C394        C395   1.409       .  A
C395        C400   1.507       .  S
C395        C396   1.401       .  A
C396        C397   1.405       .  A
C396        H401   1.083       .  S
C397        C398   1.417       .  A
C398        C402   1.506       .  S
C399        C404   1.410       .  A
C399        C408   1.402       .  A
C400        H416   1.109       .  S
C400        H417   1.111       .  S
C400        H418   1.111       .  S
C402        H413   1.110       .  S
C402        H414   1.110   1_565  S
C402        H415   1.104   1_565  S
C404        C409   1.506       .  S
C404        C405   1.403       .  A
C405        C406   1.404       .  A
C405        H410   1.084       .  S
C406        C407   1.414       .  A
C407        C411   1.508       .  S
C407        C408   1.402       .  A
C408        H412   1.084       .  S
C409        H419   1.111       .  S
C409        H420   1.110       .  S
C409        H421   1.110       .  S
C411        H422   1.111   1_565  S
C411        H423   1.108       .  S
C411        H424   1.110       .  S
C425        C426   1.401       .  A
C425        C430   1.403       .  A
C425        H435   1.085       .  S
C426        C431   1.487       .  S
C426        C427   1.413       .  A
C427        C432   1.506       .  S
C427        C428   1.407       .  A
C428        C429   1.405       .  A
C428        H433   1.084       .  S
C429        C430   1.419       .  A
C430        C434   1.509       .  S
C431        C436   1.407       .  A
C431        C440   1.396       .  A
C432        H448   1.110       .  S
C432        H449   1.110       .  S
C432        H450   1.111       .  S
C434        H445   1.110       .  S
C434        H446   1.111       .  S
C434        H447   1.107       .  S
C436        C441   1.508       .  S
C436        C437   1.405       .  A
C437        C438   1.415       .  A
C437        H442   1.074       .  S
C438        C439   1.434       .  A
C439        C443   1.515       .  S
C439        C440   1.407       .  A
C440        H444   1.084       .  S
C441        H451   1.111       .  S
C441        H452   1.109       .  S
C441        H453   1.110       .  S
C443        H454   1.111       .  S
C443        H455   1.105       .  S
C443        H456   1.106       .  S
C457        C458   1.398       .  A
C457        C462   1.401       .  A
C457        H467   1.085       .  S
C458        C463   1.482       .  S
C458        C459   1.408       .  A
C459        C464   1.505       .  S
C459        C460   1.408       .  A
C460        C461   1.409       .  A
C460        H465   1.084       .  S
C461        C462   1.423       .  A
C462        C466   1.509       .  S
C463        C468   1.411       .  A
C463        C472   1.401       .  A
C464        H480   1.110       .  S
C464        H481   1.110       .  S
C464        H482   1.111       .  S
C466        H477   1.111       .  S
C466        H478   1.110       .  S
C466        H479   1.110       .  S
C468        C473   1.506       .  S
C468        C469   1.403       .  A
C469        C470   1.403       .  A
C469        H474   1.085       .  S
C470        C471   1.414       .  A
C471        C475   1.504       .  S
C471        C472   1.405       .  A
C472        H476   1.084       .  S
C473        H483   1.111       .  S
C473        H484   1.110       .  S
C473        H485   1.110       .  S
C475        H486   1.111       .  S
C475        H487   1.108       .  S
C475        H488   1.109       .  S
C489        C490   1.401       .  A
C489        C494   1.404       .  A
C489        H499   1.085       .  S
C490        C495   1.484       .  S
C490        C491   1.412       .  A
C491        C496   1.507       .  S
C491        C492   1.403       .  A
C492        C493   1.404       .  A
C492        H497   1.084       .  S
C493        C494   1.420       .  A
C494        C498   1.509       .  S
C495        C500   1.413       .  A
C495        C504   1.400       .  A
C496        H512   1.109       .  S
C496        H513   1.110       .  S
C496        H514   1.111       .  S
C498        H509   1.110       .  S
C498        H510   1.111       .  S
C498        H511   1.105       .  S
C500        C505   1.506       .  S
C500        C501   1.407       .  A
C501        C502   1.402       .  A
C501        H506   1.084       .  S
C502        C503   1.418       .  A
C503        C507   1.509       .  S
C503        C504   1.399       .  A
C504        H508   1.085       .  S
C505        H515   1.111       .  S
C505        H516   1.109       .  S
C505        H517   1.111       .  S
C507        H518   1.111       .  S
C507        H519   1.106       .  S
C507        H520   1.110       .  S
C521        C522   1.398       .  A
C521        C526   1.406       .  A
C521        H531   1.085       .  S
C522        C527   1.479   1_545  S
C522        C523   1.404       .  A
C523        C528   1.508       .  S
C523        C524   1.400       .  A
C524        C525   1.415       .  A
C524        H529   1.077       .  S
C525        C526   1.428       .  A
C526        C530   1.509       .  S
C527        C532   1.407       .  A
C527        C536   1.401       .  A
C528        H544   1.110       .  S
C528        H545   1.110       .  S
C528        H546   1.111       .  S
C530        H541   1.110       .  S
C530        H542   1.111       .  S
C530        H543   1.103       .  S
C532        C537   1.508       .  S
C532        C533   1.399       .  A
C533        C534   1.407       .  A
C533        H538   1.084       .  S
C534        C535   1.421       .  A
C535        C539   1.507       .  S
C535        C536   1.408       .  A
C536        H540   1.084   1_565  S
C537        H547   1.111       .  S
C537        H548   1.110       .  S
C537        H549   1.110       .  S
C539        H550   1.111   1_565  S
C539        H551   1.110       .  S
C539        H552   1.110       .  S
C553        C554   1.398       .  A
C553        C558   1.406       .  A
C553        H563   1.084       .  S
C554        C559   1.480       .  S
C554        C555   1.409       .  A
C555        C560   1.508       .  S
C555        C556   1.401       .  A
C556        C557   1.408       .  A
C556        H561   1.083       .  S
C557        C558   1.426       .  A
C558        C562   1.509       .  S
C559        C564   1.408       .  A
C559        C568   1.398       .  A
C560        H576   1.109       .  S
C560        H577   1.110       .  S
C560        H578   1.111       .  S
C562        H573   1.111       .  S
C562        H574   1.111       .  S
C562        H575   1.110       .  S
C564        C569   1.506       .  S
C564        C565   1.404       .  A
C565        C566   1.408       .  A
C565        H570   1.084       .  S
C566        C567   1.420       .  A
C567        C571   1.506       .  S
C567        C568   1.402       .  A
C568        H572   1.085       .  S
C569        H579   1.111       .  S
C569        H580   1.110       .  S
C569        H581   1.110       .  S
C571        H582   1.111       .  S
C571        H583   1.106       .  S
C571        H584   1.104       .  S
C585        C586   1.403       .  A
C585        C590   1.404       .  A
C585        H595   1.084       .  S
C586        C591   1.481       .  S
C586        C587   1.411       .  A
C587        C592   1.507       .  S
C587        C588   1.402       .  A
C588        C589   1.402   1_545  A
C588        H593   1.084       .  S
C589        C590   1.413   1_565  A
C590        C594   1.506   1_545  S
C591        C596   1.409       .  A
C591        C600   1.404       .  A
C592        H608   1.110       .  S
C592        H609   1.110       .  S
C592        H610   1.111       .  S
C594        H605   1.111       .  S
C594        H606   1.110       .  S
C594        H607   1.109       .  S
C596        C601   1.509       .  S
C596        C597   1.396       .  A
C597        C598   1.407       .  A
C597        H602   1.084       .  S
C598        C599   1.416       .  A
C599        C603   1.506       .  S
C599        C600   1.409       .  A
C600        H604   1.084       .  S
C601        H611   1.111       .  S
C601        H612   1.109       .  S
C601        H613   1.110       .  S
C603        H614   1.110       .  S
C603        H615   1.110       .  S
C603        H616   1.107       .  S
C617        C618   1.398       .  A
C617        C622   1.407       .  A
C617        H627   1.084       .  S
C618        C623   1.484       .  S
C618        C619   1.409       .  A
C619        C624   1.507       .  S
C619        C620   1.404       .  A
C620        C621   1.410       .  A
C620        H625   1.083       .  S
C621        C622   1.427       .  A
C622        C626   1.509       .  S
C623        C628   1.411       .  A
C623        C632   1.401       .  A
C624        H640   1.110       .  S
C624        H641   1.110       .  S
C624        H642   1.111       .  S
C626        H637   1.110       .  S
C626        H638   1.111       .  S
C626        H639   1.110       .  S
C628        C633   1.506       .  S
C628        C629   1.405       .  A
C629        C630   1.405       .  A
C629        H634   1.084       .  S
C630        C631   1.415       .  A
C631        C635   1.504       .  S
C631        C632   1.405       .  A
C632        H636   1.084       .  S
C633        H643   1.111       .  S
C633        H644   1.110       .  S
C633        H645   1.110       .  S
C635        H646   1.108       .  S
C635        H647   1.109       .  S
C635        H648   1.111       .  S
C649        C650   1.400       .  A
C649        C654   1.410       .  A
C649        H659   1.084       .  S
C650        C655   1.484       .  S
C650        C651   1.409       .  A
C651        C656   1.508       .  S
C651        C652   1.402       .  A
C652        C653   1.409       .  A
C652        H657   1.084       .  S
C653        C654   1.424       .  A
C654        C658   1.507   1_655  S
C655        C660   1.411   1_556  A
C655        C664   1.403       .  A
C656        H672   1.110       .  S
C656        H673   1.110       .  S
C656        H674   1.111       .  S
C658        H669   1.110       .  S
C658        H670   1.111       .  S
C658        H671   1.110       .  S
C660        C665   1.507       .  S
C660        C661   1.403       .  A
C661        C662   1.403       .  A
C661        H666   1.083       .  S
C662        C663   1.413   1_554  A
C663        C667   1.506       .  S
C663        C664   1.406       .  A
C664        H668   1.084       .  S
C665        H675   1.111       .  S
C665        H676   1.110       .  S
C665        H677   1.110       .  S
C667        H678   1.110       .  S
C667        H679   1.109       .  S
C667        H680   1.110       .  S
C681        C682   1.401       .  A
C681        C686   1.407       .  A
C681        H691   1.084       .  S
C682        C687   1.483       .  S
C682        C683   1.410       .  A
C683        C688   1.508       .  S
C683        C684   1.403       .  A
C684        C685   1.406       .  A
C684        H689   1.084       .  S
C685        C686   1.420       .  A
C686        C690   1.508   1_554  S
C687        C692   1.411       .  A
C687        C696   1.401       .  A
C688        H704   1.110       .  S
C688        H705   1.110       .  S
C688        H706   1.111       .  S
C690        H701   1.110       .  S
C690        H702   1.111   1_556  S
C690        H703   1.105       .  S
C692        C697   1.506       .  S
C692        C693   1.406       .  A
C693        C694   1.405       .  A
C693        H698   1.084       .  S
C694        C695   1.415       .  A
C695        C699   1.507       .  S
C695        C696   1.403       .  A
C696        H700   1.085       .  S
C697        H707   1.111       .  S
C697        H708   1.110       .  S
C697        H709   1.110       .  S
C699        H710   1.110       .  S
C699        H711   1.109       .  S
C699        H712   1.110       .  S
C713        C714   1.400       .  A
C713        C718   1.406       .  A
C713        H723   1.084       .  S
C714        C719   1.482       .  S
C714        C715   1.407       .  A
C715        C720   1.507       .  S
C715        C716   1.403       .  A
C716        C717   1.411       .  A
C716        H721   1.083       .  S
C717        C718   1.423       .  A
C718        C722   1.508       .  S
C719        C724   1.410       .  A
C719        C728   1.405       .  A
C720        H736   1.110       .  S
C720        H737   1.111       .  S
C720        H738   1.111       .  S
C722        H733   1.111   1_455  S
C722        H734   1.110       .  S
C722        H735   1.111       .  S
C724        C729   1.507       .  S
C724        C725   1.400       .  A
C725        C726   1.404       .  A
C725        H730   1.084       .  S
C726        C727   1.411       .  A
C727        C731   1.506   1_455  S
C727        C728   1.407       .  A
C728        H732   1.084       .  S
C729        H739   1.111       .  S
C729        H740   1.110       .  S
C729        H741   1.110       .  S
C731        H742   1.111       .  S
C731        H743   1.111       .  S
C731        H744   1.109   1_655  S
C745        C746   1.402       .  A
C745        C750   1.405       .  A
C745        H755   1.084       .  S
C746        C751   1.482       .  S
C746        C747   1.411       .  A
C747        C752   1.506       .  S
C747        C748   1.403       .  A
C748        C749   1.401       .  A
C748        H753   1.084       .  S
C749        C750   1.415       .  A
C750        C754   1.508       .  S
C751        C756   1.411       .  A
C751        C760   1.399       .  A
C752        H768   1.110       .  S
C752        H769   1.110       .  S
C752        H770   1.111       .  S
C754        H765   1.110       .  S
C754        H766   1.110       .  S
C754        H767   1.108       .  S
C756        C761   1.505       .  S
C756        C757   1.408       .  A
C757        C758   1.405       .  A
C757        H762   1.084       .  S
C758        C759   1.420       .  A
C759        C763   1.510       .  S
C759        C760   1.401       .  A
C760        H764   1.085       .  S
C761        H771   1.111       .  S
C761        H772   1.110       .  S
C761        H773   1.110       .  S
C763        H774   1.111       .  S
C763        H775   1.107       .  S
C763        H776   1.110       .  S
C777        C778   1.403       .  A
C777        C782   1.406       .  A
C777        H787   1.084       .  S
C778        C783   1.482       .  S
C778        C779   1.411       .  A
C779        C784   1.508       .  S
C779        C780   1.399       .  A
C780        C781   1.404       .  A
C780        H785   1.084       .  S
C781        C782   1.416       .  A
C782        C786   1.506       .  S
C783        C788   1.413       .  A
C783        C792   1.403       .  A
C784        H800   1.110       .  S
C784        H801   1.110       .  S
C784        H802   1.111       .  S
C786        H797   1.110       .  S
C786        H798   1.110       .  S
C786        H799   1.104       .  S
C788        C793   1.507       .  S
C788        C789   1.402       .  A
C789        C790   1.401       .  A
C789        H794   1.084       .  S
C790        C791   1.413       .  A
C791        C795   1.506       .  S
C791        C792   1.404       .  A
C792        H796   1.084       .  S
C793        H803   1.111       .  S
C793        H804   1.110       .  S
C793        H805   1.110       .  S
C795        H806   1.110       .  S
C795        H807   1.108       .  S
C795        H808   1.110       .  S
C809        C810   1.400       .  A
C809        C814   1.402       .  A
C809        H819   1.085       .  S
C810        C815   1.477       .  S
C810        C811   1.410       .  A
C811        C816   1.507       .  S
C811        C812   1.400       .  A
C812        C813   1.402       .  A
C812        H817   1.085       .  S
C813        C814   1.418       .  A
C814        C818   1.508       .  S
C815        C820   1.407       .  A
C815        C824   1.398       .  A
C816        H832   1.110       .  S
C816        H833   1.110       .  S
C816        H834   1.111       .  S
C818        H829   1.111       .  S
C818        H830   1.110       .  S
C818        H831   1.106       .  S
C820        C825   1.508       .  S
C820        C821   1.400       .  A
C821        C822   1.410       .  A
C821        H826   1.083       .  S
C822        C823   1.424       .  A
C823        C827   1.508       .  S
C823        C824   1.404       .  A
C824        H828   1.084       .  S
C825        H835   1.111       .  S
C825        H836   1.110       .  S
C825        H837   1.110       .  S
C827        H838   1.111       .  S
C827        H839   1.110       .  S
C827        H840   1.109       .  S
C841        C842   1.402       .  A
C841        C846   1.403       .  A
C841        H851   1.085       .  S
C842        C847   1.475       .  S
C842        C843   1.408       .  A
C843        C848   1.507       .  S
C843        C844   1.401       .  A
C844        C845   1.404       .  A
C844        H849   1.084       .  S
C845        C846   1.414       .  A
C846        C850   1.508       .  S
C847        C852   1.411       .  A
C847        C856   1.399       .  A
C848        H864   1.110       .  S
C848        H865   1.110       .  S
C848        H866   1.111       .  S
C850        H861   1.110       .  S
C850        H862   1.110       .  S
C850        H863   1.107       .  S
C852        C857   1.507       .  S
C852        C853   1.401       .  A
C853        C854   1.403       .  A
C853        H858   1.084       .  S
C854        C855   1.414       .  A
C855        C859   1.507       .  S
C855        C856   1.400       .  A
C856        H860   1.084       .  S
C857        H867   1.111       .  S
C857        H868   1.110       .  S
C857        H869   1.110       .  S
C859        H870   1.110       .  S
C859        H871   1.108       .  S
C859        H872   1.110       .  S
C873        C874   1.396   1_556  A
C873        C878   1.402       .  A
C873        H883   1.085       .  S
C874        C879   1.479       .  S
C874        C875   1.409       .  A
C875        C880   1.506       .  S
C875        C876   1.404       .  A
C876        C877   1.407   1_554  A
C876        H881   1.084       .  S
C877        C878   1.423       .  A
C878        C882   1.502       .  S
C879        C884   1.408       .  A
C879        C888   1.397       .  A
C880        H896   1.110       .  S
C880        H897   1.110       .  S
C880        H898   1.111       .  S
C882        H893   1.110       .  S
C882        H894   1.111       .  S
C882        H895   1.090       .  S
C884        C889   1.505       .  S
C884        C885   1.408       .  A
C885        C886   1.410       .  A
C885        H890   1.084       .  S
C886        C887   1.422       .  A
C887        C891   1.509       .  S
C887        C888   1.399       .  A
C888        H892   1.085       .  S
C889        H899   1.111       .  S
C889        H900   1.110   1_554  S
C889        H901   1.110       .  S
C891        H902   1.110       .  S
C891        H903   1.110       .  S
C891        H904   1.111       .  S
C905        C906   1.400       .  A
C905        C910   1.400       .  A
C905        H915   1.085       .  S
C906        C911   1.478       .  S
C906        C907   1.412       .  A
C907        C912   1.507       .  S
C907        C908   1.401       .  A
C908        C909   1.401       .  A
C908        H913   1.084       .  S
C909        C910   1.418       .  A
C910        C914   1.509       .  S
C911        C916   1.412       .  A
C911        C920   1.399       .  A
C912        H928   1.109       .  S
C912        H929   1.110       .  S
C912        H930   1.111       .  S
C914        H925   1.110       .  S
C914        H926   1.111       .  S
C914        H927   1.106       .  S
C916        C921   1.506       .  S
C916        C917   1.406       .  A
C917        C918   1.404       .  A
C917        H922   1.084       .  S
C918        C919   1.416       .  A
C919        C923   1.510       .  S
C919        C920   1.397       .  A
C920        H924   1.085       .  S
C921        H931   1.111       .  S
C921        H932   1.109       .  S
C921        H933   1.110       .  S
C923        H934   1.111       .  S
C923        H935   1.107       .  S
C923        H936   1.110       .  S
C937        C938   1.400       .  A
C937        C942   1.404       .  A
C937        H947   1.084       .  S
C938        C943   1.483       .  S
C938        C939   1.411       .  A
C939        C944   1.507       .  S
C939        C940   1.403       .  A
C940        C941   1.406       .  A
C940        H945   1.084       .  S
C941        C942   1.422       .  A
C942        C946   1.509       .  S
C943        C948   1.413       .  A
C943        C952   1.400       .  A
C944        H960   1.109       .  S
C944        H961   1.110   1_556  S
C944        H962   1.111   1_556  S
C946        H957   1.111       .  S
C946        H958   1.109       .  S
C946        H959   1.111       .  S
C948        C953   1.506       .  S
C948        C949   1.406       .  A
C949        C950   1.403       .  A
C949        H954   1.084       .  S
C950        C951   1.416       .  A
C951        C955   1.509       .  S
C951        C952   1.398       .  A
C952        H956   1.085       .  S
C953        H963   1.111   1_556  S
C953        H964   1.109       .  S
C953        H965   1.110   1_556  S
C955        H966   1.111       .  S
C955        H967   1.105       .  S
C955        H968   1.110       .  S
C969        C970   1.398       .  A
C969        C974   1.403       .  A
C969        H979   1.084       .  S
C970        C975   1.478       .  S
C970        C971   1.409       .  A
C971        C976   1.507       .  S
C971        C972   1.404       .  A
C972        C973   1.408       .  A
C972        H977   1.084       .  S
C973        C974   1.420       .  A
C974        C978   1.508       .  S
C975        C980   1.405       .  A
C975        C984   1.396       .  A
C976        H992   1.110       .  S
C976        H993   1.109       .  S
C976        H994   1.111       .  S
C978        H989   1.111       .  S
C978        H990   1.111       .  S
C978        H991   1.110       .  S
C980        C985   1.509       .  S
C980        C981   1.400       .  A
C981        C982   1.414       .  A
C981        H986   1.074   1_556  S
C982        C983   1.431       .  A
C983        C987   1.512       .  S
C983        C984   1.405       .  A
C984        H988   1.085       .  S
C985        H995   1.111   1_556  S
C985        H996   1.110       .  S
C985        H997   1.109       .  S
C987        H998   1.111       .  S
C987        H999   1.102       .  S
C987       H1000   1.111       .  S
C1001      C1002   1.402       .  A
C1001      C1006   1.404   1_554  A
C1001      H1011   1.084       .  S
C1002      C1007   1.477       .  S
C1002      C1003   1.410   1_554  A
C1003      C1008   1.508       .  S
C1003      C1004   1.399       .  A
C1004      C1005   1.402       .  A
C1004      H1009   1.085       .  S
C1005      C1006   1.414       .  A
C1006      C1010   1.507       .  S
C1007      C1012   1.405       .  A
C1007      C1016   1.397       .  A
C1008      H1024   1.110       .  S
C1008      H1025   1.109       .  S
C1008      H1026   1.111       .  S
C1010      H1021   1.111   1_556  S
C1010      H1022   1.110       .  S
C1010      H1023   1.108       .  S
C1012      C1017   1.509       .  S
C1012      C1013   1.400       .  A
C1013      C1014   1.414       .  A
C1013      H1018   1.078       .  S
C1014      C1015   1.428       .  A
C1015      C1019   1.510       .  S
C1015      C1016   1.404       .  A
C1016      H1020   1.085       .  S
C1017      H1027   1.111       .  S
C1017      H1028   1.110       .  S
C1017      H1029   1.109       .  S
C1019      H1030   1.111       .  S
C1019      H1031   1.104       .  S
C1019      H1032   1.110       .  S
C1033      C1034   1.396       .  A
C1033      C1038   1.401       .  A
C1033      H1043   1.085       .  S
C1034      C1039   1.475       .  S
C1034      C1035   1.408       .  A
C1035      C1040   1.506       .  S
C1035      C1036   1.403       .  A
C1036      C1037   1.409       .  A
C1036      H1041   1.084       .  S
C1037      C1038   1.425       .  A
C1038      C1042   1.510       .  S
C1039      C1044   1.403       .  A
C1039      C1048   1.394       .  A
C1040      H1056   1.110       .  S
C1040      H1057   1.110       .  S
C1040      H1058   1.111       .  S
C1042      H1053   1.110       .  S
C1042      H1054   1.111       .  S
C1042      H1055   1.110       .  S
C1044      C1049   1.508       .  S
C1044      C1045   1.402       .  A
C1045      C1046   1.416       .  A
C1045      H1050   1.073       .  S
C1046      C1047   1.431       .  A
C1047      C1051   1.513       .  S
C1047      C1048   1.401       .  A
C1048      H1052   1.085       .  S
C1049      H1059   1.111       .  S
C1049      H1060   1.110       .  S
C1049      H1061   1.110       .  S
C1051      H1062   1.111       .  S
C1051      H1063   1.102       .  S
C1051      H1064   1.111       .  S
C1065      C1066   1.401       .  A
C1065      C1070   1.410       .  A
C1065      H1075   1.084       .  S
C1066      C1071   1.483       .  S
C1066      C1067   1.409       .  A
C1067      C1072   1.508       .  S
C1067      C1068   1.400       .  A
C1068      C1069   1.409       .  A
C1068      H1073   1.084       .  S
C1069      C1070   1.423       .  A
C1070      C1074   1.507       .  S
C1071      C1076   1.411   1_545  A
C1071      C1080   1.400       .  A
C1072      H1088   1.110       .  S
C1072      H1089   1.109       .  S
C1072      H1090   1.111       .  S
C1074      H1085   1.111       .  S
C1074      H1086   1.110       .  S
C1074      H1087   1.110       .  S
C1076      C1081   1.506       .  S
C1076      C1077   1.406       .  A
C1077      C1078   1.404       .  A
C1077      H1082   1.083       .  S
C1078      C1079   1.418   1_565  A
C1079      C1083   1.508       .  S
C1079      C1080   1.402       .  A
C1080      H1084   1.085       .  S
C1081      H1091   1.111       .  S
C1081      H1092   1.110       .  S
C1081      H1093   1.110       .  S
C1083      H1094   1.110       .  S
C1083      H1095   1.108       .  S
C1083      H1096   1.110       .  S
C1097      C1098   1.402       .  A
C1097      C1102   1.400       .  A
C1097      H1107   1.085       .  S
C1098      C1103   1.482       .  S
C1098      C1099   1.413       .  A
C1099      C1104   1.507       .  S
C1099      C1100   1.406       .  A
C1100      C1101   1.402       .  A
C1100      H1105   1.084   1_455  S
C1101      C1102   1.413       .  A
C1102      C1106   1.509       .  S
C1103      C1108   1.413       .  A
C1103      C1112   1.400       .  A
C1104      H1120   1.109       .  S
C1104      H1121   1.110       .  S
C1104      H1122   1.111       .  S
C1106      H1117   1.110       .  S
C1106      H1118   1.110       .  S
C1106      H1119   1.108   1_455  S
C1108      C1113   1.506       .  S
C1108      C1109   1.406       .  A
C1109      C1110   1.401       .  A
C1109      H1114   1.084       .  S
C1110      C1111   1.416       .  A
C1111      C1115   1.508       .  S
C1111      C1112   1.398       .  A
C1112      H1116   1.085       .  S
C1113      H1123   1.111       .  S
C1113      H1124   1.109       .  S
C1113      H1125   1.110       .  S
C1115      H1126   1.110       .  S
C1115      H1127   1.105       .  S
C1115      H1128   1.111       .  S
C1129      C1130   1.400       .  A
C1129      C1134   1.409       .  A
C1129      H1139   1.084       .  S
C1130      C1135   1.482       .  S
C1130      C1131   1.409       .  A
C1131      C1136   1.509       .  S
C1131      C1132   1.401       .  A
C1132      C1133   1.410       .  A
C1132      H1137   1.084       .  S
C1133      C1134   1.424       .  A
C1134      C1138   1.507       .  S
C1135      C1140   1.411   1_655  A
C1135      C1144   1.400       .  A
C1136      H1152   1.110       .  S
C1136      H1153   1.109       .  S
C1136      H1154   1.111       .  S
C1138      H1149   1.111       .  S
C1138      H1150   1.110   1_565  S
C1138      H1151   1.110   1_565  S
C1140      C1145   1.506       .  S
C1140      C1141   1.406       .  A
C1141      C1142   1.404   1_455  A
C1141      H1146   1.083       .  S
C1142      C1143   1.416       .  A
C1143      C1147   1.506       .  S
C1143      C1144   1.400       .  A
C1144      H1148   1.085       .  S
C1145      H1155   1.111       .  S
C1145      H1156   1.110       .  S
C1145      H1157   1.109       .  S
C1147      H1158   1.110       .  S
C1147      H1159   1.108       .  S
C1147      H1160   1.110       .  S
C1161      C1162   1.400       .  A
C1161      C1166   1.401       .  A
C1161      H1171   1.085       .  S
C1162      C1167   1.479       .  S
C1162      C1163   1.411       .  A
C1163      C1168   1.506       .  S
C1163      C1164   1.404       .  A
C1164      C1165   1.402       .  A
C1164      H1169   1.084       .  S
C1165      C1166   1.416       .  A
C1166      C1170   1.509       .  S
C1167      C1172   1.405       .  A
C1167      C1176   1.396       .  A
C1168      H1184   1.110       .  S
C1168      H1185   1.110       .  S
C1168      H1186   1.111       .  S
C1170      H1181   1.110       .  S
C1170      H1182   1.111       .  S
C1170      H1183   1.108       .  S
C1172      C1177   1.509       .  S
C1172      C1173   1.401       .  A
C1173      C1174   1.414       .  A
C1173      H1178   1.074   1_565  S
C1174      C1175   1.432       .  A
C1175      C1179   1.512       .  S
C1175      C1176   1.404       .  A
C1176      H1180   1.085       .  S
C1177      H1187   1.111   1_565  S
C1177      H1188   1.110       .  S
C1177      H1189   1.110       .  S
C1179      H1190   1.111       .  S
C1179      H1191   1.102       .  S
C1179      H1192   1.111       .  S
C1193      C1194   1.398       .  A
C1193      C1198   1.407       .  A
C1193      H1203   1.084       .  S
C1194      C1199   1.479       .  S
C1194      C1195   1.410       .  A
C1195      C1200   1.508       .  S
C1195      C1196   1.402       .  A
C1196      C1197   1.407       .  A
C1196      H1201   1.084       .  S
C1197      C1198   1.424       .  A
C1198      C1202   1.508       .  S
C1199      C1204   1.410   1_565  A
C1199      C1208   1.401       .  A
C1200      H1216   1.110       .  S
C1200      H1217   1.110       .  S
C1200      H1218   1.111       .  S
C1202      H1213   1.111       .  S
C1202      H1214   1.109   1_556  S
C1202      H1215   1.110   1_556  S
C1204      C1209   1.506       .  S
C1204      C1205   1.403       .  A
C1205      C1206   1.404   1_545  A
C1205      H1210   1.084       .  S
C1206      C1207   1.415       .  A
C1207      C1211   1.507       .  S
C1207      C1208   1.401       .  A
C1208      H1212   1.084       .  S
C1209      H1219   1.111       .  S
C1209      H1220   1.110       .  S
C1209      H1221   1.110       .  S
C1211      H1222   1.111       .  S
C1211      H1223   1.109       .  S
C1211      H1224   1.110       .  S
C1225      C1226   1.400       .  A
C1225      C1230   1.401       .  A
C1225      H1235   1.085       .  S
C1226      C1231   1.480       .  S
C1226      C1227   1.411       .  A
C1227      C1232   1.505       .  S
C1227      C1228   1.405       .  A
C1228      C1229   1.402       .  A
C1228      H1233   1.084   1_545  S
C1229      C1230   1.417       .  A
C1230      C1234   1.509       .  S
C1231      C1236   1.410       .  A
C1231      C1240   1.400       .  A
C1232      H1248   1.110       .  S
C1232      H1249   1.110   1_545  S
C1232      H1250   1.111   1_545  S
C1234      H1245   1.110       .  S
C1234      H1246   1.111       .  S
C1234      H1247   1.106       .  S
C1236      C1241   1.506   1_545  S
C1236      C1237   1.405       .  A
C1237      C1238   1.404       .  A
C1237      H1242   1.084       .  S
C1238      C1239   1.418       .  A
C1239      C1243   1.509       .  S
C1239      C1240   1.403       .  A
C1240      H1244   1.085       .  S
C1241      H1251   1.111       .  S
C1241      H1252   1.110   1_565  S
C1241      H1253   1.110       .  S
C1243      H1254   1.111       .  S
C1243      H1255   1.107       .  S
C1243      H1256   1.110       .  S
C1257      C1258   1.402       .  A
C1257      C1262   1.405       .  A
C1257      H1267   1.084       .  S
C1258      C1263   1.483       .  S
C1258      C1259   1.412       .  A
C1259      C1264   1.507       .  S
C1259      C1260   1.402       .  A
C1260      C1261   1.402       .  A
C1260      H1265   1.084       .  S
C1261      C1262   1.417       .  A
C1262      C1266   1.508       .  S
C1263      C1268   1.409       .  A
C1263      C1272   1.396       .  A
C1264      H1280   1.110       .  S
C1264      H1281   1.109       .  S
C1264      H1282   1.111       .  S
C1266      H1277   1.110       .  S
C1266      H1278   1.111       .  S
C1266      H1279   1.107       .  S
C1268      C1273   1.506       .  S
C1268      C1269   1.407       .  A
C1269      C1270   1.411       .  A
C1269      H1274   1.083       .  S
C1270      C1271   1.428       .  A
C1271      C1275   1.510       .  S
C1271      C1272   1.404       .  A
C1272      H1276   1.085       .  S
C1273      H1283   1.111       .  S
C1273      H1284   1.110       .  S
C1273      H1285   1.109       .  S
C1275      H1286   1.111       .  S
C1275      H1287   1.110       .  S
C1275      H1288   1.111       .  S
C1289      C1290   1.404       .  A
C1289      C1294   1.406       .  A
C1289      H1299   1.084       .  S
C1290      C1295   1.481       .  S
C1290      C1291   1.411       .  A
C1291      C1296   1.507       .  S
C1291      C1292   1.401       .  A
C1292      C1293   1.401       .  A
C1292      H1297   1.082       .  S
C1293      C1294   1.411       .  A
C1294      C1298   1.506       .  S
C1295      C1300   1.410       .  A
C1295      C1304   1.403       .  A
C1296      H1312   1.110       .  S
C1296      H1313   1.110       .  S
C1296      H1314   1.111       .  S
C1298      H1309   1.111       .  S
C1298      H1310   1.111       .  S
C1298      H1311   1.110       .  S
C1300      C1305   1.508       .  S
C1300      C1301   1.398       .  A
C1301      C1302   1.402       .  A
C1301      H1306   1.085       .  S
C1302      C1303   1.418       .  A
C1303      C1307   1.507       .  S
C1303      C1304   1.408       .  A
C1304      H1308   1.084       .  S
C1305      H1315   1.111       .  S
C1305      H1316   1.110       .  S
C1305      H1317   1.110       .  S
C1307      H1318   1.110       .  S
C1307      H1319   1.107       .  S
C1307      H1320   1.111       .  S
C1321      C1322   1.400       .  A
C1321      C1326   1.408       .  A
C1321      H1331   1.084       .  S
C1322      C1327   1.481       .  S
C1322      C1323   1.406       .  A
C1323      C1328   1.508       .  S
C1323      C1324   1.399       .  A
C1324      C1325   1.407       .  A
C1324      H1329   1.079       .  S
C1325      C1326   1.423       .  A
C1326      C1330   1.508       .  S
C1327      C1332   1.412       .  A
C1327      C1336   1.401       .  A
C1328      H1344   1.110       .  S
C1328      H1345   1.110       .  S
C1328      H1346   1.111       .  S
C1330      H1341   1.111       .  S
C1330      H1342   1.107       .  S
C1330      H1343   1.109       .  S
C1332      C1337   1.507       .  S
C1332      C1333   1.405       .  A
C1333      C1334   1.402       .  A
C1333      H1338   1.084       .  S
C1334      C1335   1.413       .  A
C1335      C1339   1.508       .  S
C1335      C1336   1.402       .  A
C1336      H1340   1.084       .  S
C1337      H1347   1.111       .  S
C1337      H1348   1.110       .  S
C1337      H1349   1.110       .  S
C1339      H1350   1.110       .  S
C1339      H1351   1.108       .  S
C1339      H1352   1.110       .  S
C1353      C1354   1.399       .  A
C1353      C1358   1.402       .  A
C1353      H1363   1.084       .  S
C1354      C1359   1.481       .  S
C1354      C1355   1.410       .  A
C1355      C1360   1.505       .  S
C1355      C1356   1.405       .  A
C1356      C1357   1.405       .  A
C1356      H1361   1.084       .  S
C1357      C1358   1.418       .  A
C1358      C1362   1.505       .  S
C1359      C1364   1.409       .  A
C1359      C1368   1.397       .  A
C1360      H1376   1.110       .  S
C1360      H1377   1.110       .  S
C1360      H1378   1.111       .  S
C1362      H1373   1.111       .  S
C1362      H1374   1.107       .  S
C1362      H1375   1.107       .  S
C1364      C1369   1.507       .  S
C1364      C1365   1.403       .  A
C1365      C1366   1.410       .  A
C1365      H1370   1.083       .  S
C1366      C1367   1.426       .  A
C1367      C1371   1.509       .  S
C1367      C1368   1.405       .  A
C1368      H1372   1.084       .  S
C1369      H1379   1.111       .  S
C1369      H1380   1.110       .  S
C1369      H1381   1.110       .  S
C1371      H1382   1.111       .  S
C1371      H1383   1.110       .  S
C1371      H1384   1.111       .  S
C1385      C1386   1.404       .  A
C1385      C1390   1.407       .  A
C1385      H1395   1.084       .  S
C1386      C1391   1.482       .  S
C1386      C1387   1.410       .  A
C1387      C1392   1.509       .  S
C1387      C1388   1.397       .  A
C1388      C1389   1.405       .  A
C1388      H1393   1.084       .  S
C1389      C1390   1.415       .  A
C1390      C1394   1.506       .  S
C1391      C1396   1.409       .  A
C1391      C1400   1.402       .  A
C1392      H1408   1.109       .  S
C1392      H1409   1.110       .  S
C1392      H1410   1.111       .  S
C1394      H1405   1.111       .  S
C1394      H1406   1.110   1_455  S
C1394      H1407   1.106       .  S
C1396      C1401   1.507       .  S
C1396      C1397   1.402       .  A
C1397      C1398   1.407       .  A
C1397      H1402   1.084       .  S
C1398      C1399   1.419       .  A
C1399      C1403   1.509   1_455  S
C1399      C1400   1.404       .  A
C1400      H1404   1.085   1_455  S
C1401      H1411   1.111       .  S
C1401      H1412   1.110       .  S
C1401      H1413   1.110       .  S
C1403      H1414   1.110       .  S
C1403      H1415   1.104       .  S
C1403      H1416   1.111       .  S
C1417      C1418   1.401       .  A
C1417      C1422   1.404       .  A
C1417      H1427   1.084       .  S
C1418      C1423   1.475       .  S
C1418      C1419   1.409       .  A
C1419      C1424   1.507       .  S
C1419      C1420   1.400       .  A
C1420      C1421   1.404       .  A
C1420      H1425   1.084       .  S
C1421      C1422   1.415       .  A
C1422      C1426   1.505       .  S
C1423      C1428   1.410       .  A
C1423      C1432   1.398       .  A
C1424      H1440   1.110       .  S
C1424      H1441   1.109       .  S
C1424      H1442   1.111       .  S
C1426      H1437   1.111       .  S
C1426      H1438   1.106       .  S
C1426      H1439   1.110       .  S
C1428      C1433   1.506       .  S
C1428      C1429   1.405       .  A
C1429      C1430   1.405       .  A
C1429      H1434   1.084       .  S
C1430      C1431   1.417       .  A
C1431      C1435   1.510       .  S
C1431      C1432   1.399       .  A
C1432      H1436   1.085       .  S
C1433      H1443   1.111       .  S
C1433      H1444   1.110       .  S
C1433      H1445   1.109       .  S
C1435      H1446   1.110       .  S
C1435      H1447   1.107       .  S
C1435      H1448   1.111       .  S
C1449      C1450   1.398       .  A
C1449      C1454   1.403       .  A
C1449      H1459   1.084       .  S
C1450      C1455   1.482       .  S
C1450      C1451   1.409       .  A
C1451      C1456   1.505   1_655  S
C1451      C1452   1.405       .  A
C1452      C1453   1.407       .  A
C1452      H1457   1.084   1_655  S
C1453      C1454   1.418       .  A
C1454      C1458   1.503       .  S
C1455      C1460   1.409       .  A
C1455      C1464   1.397       .  A
C1456      H1472   1.110       .  S
C1456      H1473   1.110       .  S
C1456      H1474   1.111       .  S
C1458      H1469   1.111       .  S
C1458      H1470   1.107       .  S
C1458      H1471   1.106       .  S
C1460      C1465   1.507       .  S
C1460      C1461   1.403       .  A
C1461      C1462   1.410       .  A
C1461      H1466   1.083       .  S
C1462      C1463   1.427       .  A
C1463      C1467   1.509       .  S
C1463      C1464   1.407       .  A
C1464      H1468   1.084       .  S
C1465      H1475   1.111       .  S
C1465      H1476   1.110       .  S
C1465      H1477   1.110       .  S
C1467      H1478   1.110       .  S
C1467      H1479   1.110       .  S
C1467      H1480   1.111       .  S
C1481      C1482   1.401       .  A
C1481      C1486   1.402       .  A
C1481      H1491   1.084       .  S
C1482      C1487   1.475       .  S
C1482      C1483   1.411       .  A
C1483      C1488   1.507       .  S
C1483      C1484   1.399       .  A
C1484      C1485   1.400       .  A
C1484      H1489   1.084       .  S
C1485      C1486   1.413       .  A
C1486      C1490   1.507       .  S
C1487      C1492   1.407       .  A
C1487      C1496   1.398       .  A
C1488      H1504   1.110       .  S
C1488      H1505   1.110       .  S
C1488      H1506   1.111       .  S
C1490      H1501   1.111       .  S
C1490      H1502   1.110       .  S
C1490      H1503   1.109       .  S
C1492      C1497   1.507       .  S
C1492      C1493   1.399       .  A
C1493      C1494   1.405       .  A
C1493      H1498   1.081       .  S
C1494      C1495   1.423       .  A
C1495      C1499   1.508       .  S
C1495      C1496   1.402       .  A
C1496      H1500   1.085       .  S
C1497      H1507   1.111       .  S
C1497      H1508   1.110       .  S
C1497      H1509   1.110       .  S
C1499      H1510   1.110       .  S
C1499      H1511   1.099       .  S
C1499      H1512   1.111       .  S
C1513      C1514   1.399       .  A
C1513      C1518   1.407       .  A
C1513      H1523   1.084       .  S
C1514      C1519   1.480       .  S
C1514      C1515   1.407       .  A
C1515      C1520   1.507       .  S
C1515      C1516   1.401       .  A
C1516      C1517   1.411       .  A
C1516      H1521   1.083       .  S
C1517      C1518   1.424       .  A
C1518      C1522   1.508       .  S
C1519      C1524   1.408       .  A
C1519      C1528   1.400       .  A
C1520      H1536   1.110       .  S
C1520      H1537   1.110       .  S
C1520      H1538   1.111       .  S
C1522      H1533   1.110       .  S
C1522      H1534   1.111       .  S
C1522      H1535   1.110       .  S
C1524      C1529   1.507       .  S
C1524      C1525   1.401       .  A
C1525      C1526   1.406       .  A
C1525      H1530   1.084       .  S
C1526      C1527   1.419       .  A
C1527      C1531   1.507       .  S
C1527      C1528   1.406       .  A
C1528      H1532   1.084       .  S
C1529      H1539   1.111       .  S
C1529      H1540   1.110       .  S
C1529      H1541   1.110       .  S
C1531      H1542   1.111       .  S
C1531      H1543   1.110       .  S
C1531      H1544   1.105       .  S
C1545      C1546   1.400       .  A
C1545      C1550   1.406       .  A
C1545      H1555   1.084       .  S
C1546      C1551   1.482       .  S
C1546      C1547   1.409       .  A
C1547      C1552   1.507       .  S
C1547      C1548   1.402       .  A
C1548      C1549   1.408       .  A
C1548      H1553   1.084       .  S
C1549      C1550   1.422       .  A
C1550      C1554   1.508       .  S
C1551      C1556   1.412       .  A
C1551      C1560   1.401       .  A
C1552      H1568   1.110       .  S
C1552      H1569   1.110       .  S
C1552      H1570   1.111       .  S
C1554      H1565   1.111       .  S
C1554      H1566   1.110       .  S
C1554      H1567   1.105       .  S
C1556      C1561   1.505       .  S
C1556      C1557   1.405       .  A
C1557      C1558   1.402       .  A
C1557      H1562   1.084       .  S
C1558      C1559   1.414       .  A
C1559      C1563   1.505       .  S
C1559      C1560   1.402       .  A
C1560      H1564   1.084       .  S
C1561      H1571   1.111       .  S
C1561      H1572   1.110       .  S
C1561      H1573   1.110       .  S
C1563      H1574   1.110       .  S
C1563      H1575   1.105       .  S
C1563      H1576   1.110       .  S
C1577      C1578   1.394       .  A
C1577      C1582   1.402       .  A
C1577      H1587   1.085       .  S
C1578      C1583   1.476       .  S
C1578      C1579   1.405       .  A
C1579      C1584   1.508       .  S
C1579      C1580   1.401       .  A
C1580      C1581   1.413       .  A
C1580      H1585   1.075   1_655  S
C1581      C1582   1.431       .  A
C1582      C1586   1.511       .  S
C1583      C1588   1.410       .  A
C1583      C1592   1.399       .  A
C1584      H1600   1.110       .  S
C1584      H1601   1.110       .  S
C1584      H1602   1.111   1_655  S
C1586      H1597   1.111       .  S
C1586      H1598   1.101       .  S
C1586      H1599   1.111       .  S
C1588      C1593   1.506       .  S
C1588      C1589   1.403       .  A
C1589      C1590   1.404       .  A
C1589      H1594   1.084       .  S
C1590      C1591   1.415       .  A
C1591      C1595   1.509       .  S
C1591      C1592   1.401       .  A
C1592      H1596   1.084       .  S
C1593      H1603   1.111       .  S
C1593      H1604   1.110       .  S
C1593      H1605   1.110       .  S
C1595      H1606   1.111       .  S
C1595      H1607   1.109       .  S
C1595      H1608   1.111       .  S
C1609      C1610   1.397       .  A
C1609      C1614   1.401       .  A
C1609      H1619   1.084       .  S
C1610      C1615   1.475   1_655  S
C1610      C1611   1.409       .  A
C1611      C1616   1.506   1_655  S
C1611      C1612   1.403       .  A
C1612      C1613   1.406       .  A
C1612      H1617   1.084       .  S
C1613      C1614   1.420       .  A
C1614      C1618   1.509       .  S
C1615      C1620   1.403       .  A
C1615      C1624   1.394       .  A
C1616      H1632   1.110       .  S
C1616      H1633   1.110       .  S
C1616      H1634   1.111       .  S
C1618      H1629   1.109       .  S
C1618      H1630   1.111       .  S
C1618      H1631   1.111       .  S
C1620      C1625   1.508       .  S
C1620      C1621   1.400       .  A
C1621      C1622   1.416       .  A
C1621      H1626   1.076       .  S
C1622      C1623   1.432       .  A
C1623      C1627   1.512       .  S
C1623      C1624   1.402       .  A
C1624      H1628   1.086   1_455  S
C1625      H1635   1.111       .  S
C1625      H1636   1.110       .  S
C1625      H1637   1.110       .  S
C1627      H1638   1.111       .  S
C1627      H1639   1.100       .  S
C1627      H1640   1.111       .  S
C1641      C1642   1.403       .  A
C1641      C1646   1.407       .  A
C1641      H1651   1.084       .  S
C1642      C1647   1.486       .  S
C1642      C1643   1.411       .  A
C1643      C1648   1.507       .  S
C1643      C1644   1.403       .  A
C1644      C1645   1.404       .  A
C1644      H1649   1.084       .  S
C1645      C1646   1.417       .  A
C1646      C1650   1.508       .  S
C1647      C1652   1.407       .  A
C1647      C1656   1.399       .  A
C1648      H1664   1.109       .  S
C1648      H1665   1.110       .  S
C1648      H1666   1.111       .  S
C1650      H1661   1.110       .  S
C1650      H1662   1.111       .  S
C1650      H1663   1.107       .  S
C1652      C1657   1.508       .  S
C1652      C1653   1.403       .  A
C1653      C1654   1.414       .  A
C1653      H1658   1.078       .  S
C1654      C1655   1.429       .  A
C1655      C1659   1.510       .  S
C1655      C1656   1.406       .  A
C1656      H1660   1.085       .  S
C1657      H1667   1.111       .  S
C1657      H1668   1.110       .  S
C1657      H1669   1.111       .  S
C1659      H1670   1.110       .  S
C1659      H1671   1.104       .  S
C1659      H1672   1.111       .  S
C1673      C1674   1.400       .  A
C1673      C1678   1.399       .  A
C1673      H1683   1.085       .  S
C1674      C1679   1.480       .  S
C1674      C1675   1.410       .  A
C1675      C1680   1.505       .  S
C1675      C1676   1.406       .  A
C1676      C1677   1.405       .  A
C1676      H1681   1.084       .  S
C1677      C1678   1.418       .  A
C1678      C1682   1.510       .  S
C1679      C1684   1.410       .  A
C1679      C1688   1.403       .  A
C1680      H1696   1.110       .  S
C1680      H1697   1.110       .  S
C1680      H1698   1.111       .  S
C1682      H1693   1.110       .  S
C1682      H1694   1.111       .  S
C1682      H1695   1.106       .  S
C1684      C1689   1.507       .  S
C1684      C1685   1.399       .  A
C1685      C1686   1.401       .  A
C1685      H1690   1.081       .  S
C1686      C1687   1.415       .  A
C1687      C1691   1.506       .  S
C1687      C1688   1.405       .  A
C1688      H1692   1.084       .  S
C1689      H1699   1.111       .  S
C1689      H1700   1.109       .  S
C1689      H1701   1.110       .  S
C1691      H1702   1.111       .  S
C1691      H1703   1.105       .  S
C1691      H1704   1.110       .  S
C1705      C1706   1.398       .  A
C1705      C1710   1.405       .  A
C1705      H1715   1.084       .  S
C1706      C1711   1.480       .  S
C1706      C1707   1.408       .  A
C1707      C1712   1.508       .  S
C1707      C1708   1.402       .  A
C1708      C1709   1.410       .  A
C1708      H1713   1.083       .  S
C1709      C1710   1.426       .  A
C1710      C1714   1.509       .  S
C1711      C1716   1.408       .  A
C1711      C1720   1.400       .  A
C1712      H1728   1.110       .  S
C1712      H1729   1.110       .  S
C1712      H1730   1.111       .  S
C1714      H1725   1.111       .  S
C1714      H1726   1.110       .  S
C1714      H1727   1.110       .  S
C1716      C1721   1.507       .  S
C1716      C1717   1.400       .  A
C1717      C1718   1.406       .  A
C1717      H1722   1.084       .  S
C1718      C1719   1.419       .  A
C1719      C1723   1.508       .  S
C1719      C1720   1.405       .  A
C1720      H1724   1.084       .  S
C1721      H1731   1.111       .  S
C1721      H1732   1.110       .  S
C1721      H1733   1.110       .  S
C1723      H1734   1.108       .  S
C1723      H1735   1.108       .  S
C1723      H1736   1.111       .  S
C1737      C1738   1.401       .  A
C1737      C1742   1.404       .  A
C1737      H1747   1.084       .  S
C1738      C1743   1.484       .  S
C1738      C1739   1.411       .  A
C1739      C1744   1.507       .  S
C1739      C1740   1.404       .  A
C1740      C1741   1.408       .  A
C1740      H1745   1.084       .  S
C1741      C1742   1.420       .  A
C1742      C1746   1.508       .  S
C1743      C1748   1.411       .  A
C1743      C1752   1.401       .  A
C1744      H1760   1.109       .  S
C1744      H1761   1.110       .  S
C1744      H1762   1.111       .  S
C1746      H1757   1.111       .  S
C1746      H1758   1.109       .  S
C1746      H1759   1.111       .  S
C1748      C1753   1.506       .  S
C1748      C1749   1.404       .  A
C1749      C1750   1.407       .  A
C1749      H1754   1.084       .  S
C1750      C1751   1.416       .  A
C1751      C1755   1.503       .  S
C1751      C1752   1.401       .  A
C1752      H1756   1.085       .  S
C1753      H1763   1.111       .  S
C1753      H1764   1.109       .  S
C1753      H1765   1.110       .  S
C1755      H1766   1.110       .  S
C1755      H1767   1.100       .  S
C1755      H1768   1.111       .  S
C1769      C1770   1.399       .  A
C1769      C1774   1.411       .  A
C1769      H1779   1.084       .  S
C1770      C1775   1.486       .  S
C1770      C1771   1.405       .  A
C1771      C1776   1.509       .  S
C1771      C1772   1.401       .  A
C1772      C1773   1.416       .  A
C1772      H1777   1.074       .  S
C1773      C1774   1.432       .  A
C1774      C1778   1.514   1_545  S
C1775      C1780   1.408   1_655  A
C1775      C1784   1.402       .  A
C1776      H1792   1.110       .  S
C1776      H1793   1.110       .  S
C1776      H1794   1.111       .  S
C1778      H1789   1.105       .  S
C1778      H1790   1.111       .  S
C1778      H1791   1.107       .  S
C1780      C1785   1.508       .  S
C1780      C1781   1.402       .  A
C1781      C1782   1.410       .  A
C1781      H1786   1.083       .  S
C1782      C1783   1.423       .  A
C1783      C1787   1.507       .  S
C1783      C1784   1.410   1_455  A
C1784      H1788   1.084       .  S
C1785      H1795   1.111       .  S
C1785      H1796   1.110       .  S
C1785      H1797   1.110       .  S
C1787      H1798   1.111   1_455  S
C1787      H1799   1.110       .  S
C1787      H1800   1.110       .  S
C1801      C1802   1.396       .  A
C1801      C1806   1.404       .  A
C1801      H1811   1.084       .  S
C1802      C1807   1.476       .  S
C1802      C1803   1.405       .  A
C1803      C1808   1.508   1_455  S
C1803      C1804   1.400   1_455  A
C1804      C1805   1.413   1_655  A
C1804      H1809   1.074       .  S
C1805      C1806   1.430       .  A
C1806      C1810   1.514       .  S
C1807      C1812   1.409       .  A
C1807      C1816   1.401   1_556  A
C1808      H1824   1.110   1_656  S
C1808      H1825   1.110   1_655  S
C1808      H1826   1.111       .  S
C1810      H1821   1.107       .  S
C1810      H1822   1.111       .  S
C1810      H1823   1.105       .  S
C1812      C1817   1.506       .  S
C1812      C1813   1.403   1_556  A
C1813      C1814   1.404       .  A
C1813      H1818   1.084       .  S
C1814      C1815   1.415       .  A
C1815      C1819   1.509       .  S
C1815      C1816   1.399       .  A
C1816      H1820   1.085       .  S
C1817      H1827   1.111       .  S
C1817      H1828   1.110       .  S
C1817      H1829   1.110       .  S
C1819      H1830   1.111       .  S
C1819      H1831   1.108       .  S
C1819      H1832   1.110       .  S
C1833      C1834   1.396       .  A
C1833      C1838   1.404       .  A
C1833      H1843   1.085       .  S
C1834      C1839   1.475       .  S
C1834      C1835   1.403       .  A
C1835      C1840   1.509   1_554  S
C1835      C1836   1.398   1_554  A
C1836      C1837   1.415   1_556  A
C1836      H1841   1.074       .  S
C1837      C1838   1.430       .  A
C1838      C1842   1.511       .  S
C1839      C1844   1.409       .  A
C1839      C1848   1.400   1_565  A
C1840      H1856   1.110   1_566  S
C1840      H1857   1.110   1_566  S
C1840      H1858   1.111       .  S
C1842      H1853   1.111       .  S
C1842      H1854   1.110       .  S
C1842      H1855   1.103       .  S
C1844      C1849   1.506       .  S
C1844      C1845   1.402   1_565  A
C1845      C1846   1.404       .  A
C1845      H1850   1.084       .  S
C1846      C1847   1.416       .  A
C1847      C1851   1.509       .  S
C1847      C1848   1.400       .  A
C1848      H1852   1.085       .  S
C1849      H1859   1.111       .  S
C1849      H1860   1.110       .  S
C1849      H1861   1.110       .  S
C1851      H1862   1.111       .  S
C1851      H1863   1.107       .  S
C1851      H1864   1.110       .  S
