geometry optimzed in LAMMPS
_audit_creation_date              2020-11-30 
_audit_creation_method            'lammps2cif' 
_symmetry_space_group_name_H-M    'P1' 
_symmetry_Int_Tables_number       1 
_symmetry_cell_setting            triclinic 
loop_ 
_symmetry_equiv_pos_as_xyz 
  x,y,z 
_cell_length_a                    46.84343688 
_cell_length_b                    47.13030570633789 
_cell_length_c                    47.148266337820644 
_cell_angle_alpha                 90.09733348141376 
_cell_angle_beta                  89.92900325853948 
_cell_angle_gamma                 90.03526339890328 
loop_ 
_atom_site_label 
_atom_site_type_symbol 
_atom_site_fract_x 
_atom_site_fract_y 
_atom_site_fract_z 
_atom_site_charge 
Zr1        Zr  0.43469223  0.16687463  0.23111685     2.17500
O2          O  0.44277378  0.21779603  0.23560290    -0.51300
O3          O  0.39452203  0.16477911  0.26402435    -0.74500
O4          O  0.39825833  0.19404009  0.20622784    -0.81300
O5          O  0.50115941  0.15474616  0.27513538    -0.83100
O6          O  0.38155325  0.16715066  0.16963804    -0.78700
O7          O  0.46230907  0.18362347  0.27240196    -0.90300
O8          O  0.37928507  0.11910342  0.26661535    -0.76300
O9          O  0.40230170  0.13061286  0.21654759    -0.85800
O10         O  0.44720269  0.12567794  0.25738484    -0.85500
O11         O  0.44158541  0.16099539  0.18063676    -0.72200
O12         O  0.48319966  0.15648917  0.21792677    -0.84400
Zr13       Zr  0.47031983  0.07191087  0.18127841     2.26400
Zr14       Zr  0.40949378  0.12362665  0.16675311     2.06300
Zr15       Zr  0.49522652  0.11471761  0.24399053     2.10000
Zr16       Zr  0.41469980  0.08974505  0.24306511     1.78800
O17         O  0.54509943  0.12935737  0.24409067    -0.93200
O18         O  0.36906498  0.06827709  0.23059733    -0.41000
O19         O  0.46307127  0.07766520  0.23124559    -0.77600
O20         O  0.42136278  0.08190017  0.19332918    -0.96300
O21         O  0.45748882  0.11252711  0.15416343    -0.89600
O22         O  0.50287131  0.10826947  0.19445098    -0.92400
C23         C  0.37691076  0.14561285  0.27236578     1.01300
C24         C  0.48642387  0.17612503  0.28326068     1.14200
C25         C  0.38167447  0.18977011  0.18492333     1.05000
O26         O  0.35923292  0.11061048  0.16453323    -0.94600
O27         O  0.40480589  0.08301303  0.13437428    -0.90300
O28         O  0.44220429  0.05346493  0.14282379    -0.83500
C29         C  0.41948874  0.06043911  0.12943117     1.11700
O30         O  0.50384795  0.19857471  0.16959062    -0.96600
Zr31       Zr  0.48951286  0.14895925  0.16792058     1.88900
O32         O  0.50139146  0.07402022  0.14005582    -0.73200
O33         O  0.40885183  0.14440003  0.11948245    -0.52500
O34         O  0.47597816  0.17658635  0.12645245    -0.97200
O35         O  0.54115094  0.15515299  0.17005328    -0.54400
O36         O  0.50638378  0.12047821  0.12818573    -0.73700
C37         C  0.50976571  0.09385502  0.12338416     0.98600
O38         O  0.46391843  0.02058467  0.18491289    -0.62600
O39         O  0.49678013  0.09586594  0.29202838    -0.57400
O40         O  0.51122876  0.04707721  0.20129253    -0.94000
O41         O  0.52289001  0.07115833  0.24145053    -0.92500
O42         O  0.42010421  0.08105738  0.29370656    -0.92800
O43         O  0.41476459  0.03912642  0.25337875    -0.91600
C44         C  0.52584936  0.05029210  0.22409692     1.17500
H45         H  0.44572594  0.12910408  0.27753924     0.33400
H46         H  0.40932976  0.06622993  0.18770462     0.44300
H47         H  0.52233884  0.10281093  0.19045295     0.37800
H48         H  0.43693987  0.17833041  0.17079067     0.34300
H49         H  0.35698320  0.07054747  0.24769591     0.26000
H50         H  0.42264880  0.13298824  0.10836841     0.32000
H51         H  0.46853846  0.16248696  0.11274520     0.37900
H52         H  0.40216525  0.07154477  0.29948119     0.32400
H53         H  0.48801796  0.07679729  0.29054034     0.31200
H54         H  0.55373959  0.11909566  0.26024531     0.32900
H55         H  0.54931633  0.13809820  0.16083486     0.31900
H56         H  0.41477176  0.02982256  0.23453227     0.35900
H57         H  0.46714901  0.01607897  0.20516499     0.28600
H58         H  0.42474137  0.22564888  0.24328917     0.32800
H59         H  0.48940754  0.20776297  0.18190361     0.35700
H60         H  0.51724414  0.09216888  0.29571891     0.28300
H61         H  0.44320294  0.01729007  0.18235270     0.41200
H62         H  0.35324032  0.11565689  0.14504999     0.31200
H63         H  0.36066730  0.08142482  0.21654493     0.38800
H64         H  0.54600429  0.15304884  0.19036389     0.30700
H65         H  0.38997654  0.13916267  0.11162165     0.30800
H66         H  0.44390406  0.22498873  0.21591212     0.31000
Zr67       Zr  0.07037968  0.18181242  0.47997193     2.17500
O68         O  0.01843954  0.18270507  0.47688052    -0.51300
O69         O  0.07483914  0.14837019  0.51852294    -0.74500
O70         O  0.05257598  0.13733956  0.46157441    -0.81300
O71         O  0.07286559  0.24847409  0.52347948    -0.83100
O72         O  0.07896642  0.12413982  0.42314328    -0.78700
O73         O  0.04746944  0.20767002  0.51873315    -0.90300
O74         O  0.12179875  0.14370176  0.52946361    -0.76300
O75         O  0.11152266  0.15368673  0.47044473    -0.85800
O76         O  0.10788526  0.20174556  0.50735736    -0.85500
O77         O  0.07781828  0.18467521  0.42947967    -0.72200
O78         O  0.07434289  0.22973736  0.46317909    -0.84400
Zr79       Zr  0.16335862  0.22505215  0.43247992     2.26400
Zr80       Zr  0.11990549  0.15701354  0.42046672     2.06300
Zr81       Zr  0.11260801  0.24918126  0.49043570     2.10000
Zr82       Zr  0.14889822  0.17397992  0.49787232     1.78800
O83         O  0.08782485  0.29425551  0.48515515    -0.93200
O84         O  0.17023247  0.12692352  0.49510591    -0.41000
O85         O  0.15511143  0.22206985  0.48254700    -0.77600
O86         O  0.15841655  0.17667626  0.44808747    -0.96300
O87         O  0.12610794  0.20471553  0.40442428    -0.89600
O88         O  0.12170626  0.25275312  0.44080790    -0.92400
C89         C  0.09536461  0.13741673  0.53267327     1.01300
C90         C  0.05250436  0.23167736  0.53069907     1.14200
C91         C  0.05788710  0.12099701  0.44050856     1.05000
O92         O  0.13965114  0.10940557  0.42426672    -0.94600
O93         O  0.16301428  0.15562842  0.39079311    -0.90300
O94         O  0.18854546  0.19618821  0.39781800    -0.83500
C95         C  0.18474575  0.17178123  0.38620461     1.11700
O96         O  0.03318245  0.23777877  0.40867241    -0.96600
Zr97       Zr  0.08465842  0.23229359  0.41322898     1.88900
O98         O  0.15993530  0.25295388  0.38972251    -0.73200
O99         O  0.10391410  0.14889415  0.37197936    -0.52500
O100        O  0.06628176  0.21029935  0.37017924    -0.97200
O101        O  0.06733759  0.28106134  0.41140287    -0.54400
O102        O  0.11338739  0.25425151  0.37614364    -0.73700
C103        C  0.13999536  0.25981726  0.37249505     0.98600
O104        O  0.21500658  0.22612083  0.43950773    -0.62600
O105        O  0.13156586  0.26261719  0.53663390    -0.57400
O106        O  0.18056054  0.27110389  0.45006438    -0.94000
O107        O  0.14987838  0.28428202  0.48506690    -0.92500
O108        O  0.16093233  0.19328868  0.54429657    -0.92800
O109        O  0.20022511  0.17323883  0.50593933    -0.91600
C110        C  0.17190014  0.28846796  0.46937233     1.24700
H111        H  0.10365085  0.20131042  0.52740621     0.33400
H112        H  0.17585652  0.16635369  0.44448382     0.44300
H113        H  0.12479127  0.27223560  0.43530041     0.37800
H114        H  0.06160234  0.17676146  0.41960472     0.34300
H115        H  0.17209893  0.12064271  0.51505226     0.26000
H116        H  0.10676464  0.12831042  0.36882152     0.32000
H117        H  0.06631035  0.22567424  0.35589330     0.37900
H118        H  0.16504020  0.17647157  0.55616398     0.32400
H119        H  0.11869572  0.27782351  0.54348905     0.31200
H120        H  0.07072367  0.28968905  0.47370369     0.32900
H121        H  0.06376896  0.28468007  0.39102779     0.31900
H122        H  0.20710025  0.19166587  0.49854616     0.35900
H123        H  0.21759604  0.23143662  0.45966834     0.28600
H124        H  0.01189440  0.16602813  0.48787396     0.32800
H125        H  0.02509950  0.22507075  0.42333039     0.35700
H126        H  0.12742215  0.24623715  0.54909719     0.28300
H127        H  0.22127857  0.20607333  0.43876915     0.41200
H128        H  0.15856160  0.11211447  0.43322084     0.31200
H129        H  0.15499648  0.11470895  0.48716880     0.38800
H130        H  0.08396119  0.29316207  0.41602610     0.30700
H131        H  0.08293062  0.15131541  0.37261830     0.30800
H132        H  0.01400685  0.17799943  0.45688662     0.31000
Zr133      Zr  0.21882185  0.43330422  0.18128243     2.17500
O134        O  0.21568320  0.43511994  0.23290091    -0.51300
O135        O  0.25146442  0.39329634  0.17948755    -0.74500
O136        O  0.18907137  0.39506166  0.19895845    -0.81300
O137        O  0.27740397  0.48874388  0.17900885    -0.83100
O138        O  0.15278903  0.38713227  0.16791137    -0.78700
O139        O  0.25860435  0.45440924  0.20733787    -0.90300
O140        O  0.26162311  0.38280981  0.13350359    -0.76300
O141        O  0.20669893  0.40626857  0.14023882    -0.85800
O142        O  0.25225351  0.44600048  0.14555406    -0.85500
O143        O  0.17023191  0.44623622  0.17044199    -0.72200
O144        O  0.21270061  0.48354174  0.17518968    -0.84400
Zr145      Zr  0.18678227  0.48332126  0.08548224     2.26400
Zr146      Zr  0.15902123  0.41987245  0.12832339     2.06300
Zr147      Zr  0.24608675  0.49569037  0.13884124     2.10000
Zr148      Zr  0.23990833  0.41970734  0.10454228     1.78800
O149        O  0.25257813  0.54004005  0.16464501    -0.93200
O150        O  0.22647772  0.37650748  0.07951564    -0.41000
O151        O  0.23495586  0.46983072  0.09669192    -0.77600
O152        O  0.19227233  0.43280442  0.09175411    -0.96300
O153        O  0.15311876  0.46958224  0.12097993    -0.89600
O154        O  0.19849210  0.50946050  0.12714635    -0.92400
C155        C  0.26353630  0.37815029  0.16029108     1.01300
C156        C  0.27742586  0.47334983  0.20142015     1.14200
C157        C  0.16646989  0.38189036  0.19091611     1.05000
O158        O  0.15444778  0.37283549  0.10724716    -0.94600
O159        O  0.13135592  0.42411011  0.08478586    -0.90300
O160        O  0.14825688  0.46115562  0.05866792    -0.83500
C161        C  0.13121033  0.44011784  0.06273499     1.11700
O162        O  0.16461048  0.50506159  0.21302076    -0.96600
Zr163      Zr  0.16474028  0.49609159  0.16214760     1.88900
O164        O  0.14835781  0.51777601  0.08577392    -0.73200
O165        O  0.10911232  0.42073504  0.14286166    -0.52500
O166        O  0.11849340  0.48647950  0.18383312    -0.97200
O167        O  0.16958475  0.54668352  0.17222502    -0.54400
O168        O  0.13087152  0.51963193  0.13073508    -0.73700
C169        C  0.12994760  0.52591154  0.10422643     0.98600
O170        O  0.19804970  0.48211309  0.03497080    -0.62600
O171        O  0.29386104  0.49681811  0.11834712    -0.57400
O172        O  0.21294981  0.52617557  0.07056314    -0.94000
O173        O  0.24848467  0.53200072  0.10297707    -0.92500
O174        O  0.29140493  0.42335470  0.09845332    -0.92800
O175        O  0.25351800  0.42155159  0.05472716    -0.91600
C176        C  0.23475483  0.53946319  0.08073832     1.17500
H177        H  0.27155717  0.44151031  0.15114529     0.33400
H178        H  0.18756768  0.42304718  0.07434421     0.44300
H179        H  0.19718881  0.52960773  0.12382661     0.37800
H180        H  0.15769027  0.44083735  0.18579119     0.34300
H181        H  0.24466110  0.36616026  0.07673500     0.26000
H182        H  0.10131642  0.43834420  0.13447504     0.32000
H183        H  0.10499987  0.48492250  0.16776306     0.37900
H184        H  0.29487139  0.44364346  0.09430459     0.32400
H185        H  0.30120001  0.51602493  0.12277857     0.31200
H186        H  0.23724338  0.55263397  0.15760565     0.32900
H187        H  0.15151952  0.55188443  0.18184117     0.31900
H188        H  0.24041626  0.43565610  0.04627282     0.35900
H189        H  0.21894716  0.48511588  0.03390196     0.28600
H190        H  0.22407296  0.41700947  0.23949403     0.32800
H191        H  0.16945245  0.48652673  0.22162436     0.35700
H192        H  0.30540767  0.48396688  0.13031460     0.28300
H193        H  0.19548042  0.46204367  0.02927011     0.41200
H194        H  0.16434586  0.35986430  0.12047806     0.31200
H195        H  0.21596781  0.36515860  0.09376482     0.38800
H196        H  0.16841498  0.55637708  0.15365731     0.30700
H197        H  0.10004140  0.40521782  0.13191168     0.30800
H198        H  0.19510037  0.43363786  0.23745973     0.31000
Zr199      Zr  0.97352749  0.43224889  0.81464123     2.17500
O200        O  0.96784106  0.48315862  0.80733953    -0.51300
O201        O  0.00799592  0.43521436  0.85308660    -0.74500
O202        O  0.94765651  0.45391875  0.85316891    -0.81300
O203        O  0.02491243  0.42401659  0.75342466    -0.83100
O204        O  0.91431097  0.42359746  0.87085817    -0.78700
O205        O  0.01112513  0.45546562  0.78747422    -0.90300
O206        O  0.01556216  0.39023186  0.86852826    -0.76300
O207        O  0.96275434  0.39462159  0.84655988    -0.85800
O208        O  0.00528258  0.39469406  0.80286244    -0.85500
O209        O  0.92382095  0.42144501  0.80795932    -0.72200
O210        O  0.96273443  0.42113855  0.76615933    -0.84400
Zr211      Zr  0.93534628  0.33315420  0.77877959     2.26400
Zr212      Zr  0.91372003  0.38251367  0.83920185     2.06300
Zr213      Zr  0.99412965  0.38265185  0.75488773     2.10000
Zr214      Zr  0.99443723  0.35729023  0.83464170     1.78800
O215        O  0.99697376  0.39980685  0.70628400    -0.93200
O216        O  0.98659056  0.33683247  0.88143222    -0.41000
O217        O  0.98490541  0.34392433  0.78628899    -0.77600
O218        O  0.94552187  0.34421419  0.82761505    -0.96300
O219        O  0.90323179  0.37032381  0.79124037    -0.89600
O220        O  0.94501237  0.37140475  0.74733455    -0.92400
C221        C  0.01849999  0.41726048  0.87064264     1.01300
C222        C  0.02712127  0.44771598  0.76672103     1.14200
C223        C  0.92785887  0.44732549  0.87075677     1.05000
O224        O  0.90911765  0.36653223  0.88805721    -0.94600
O225        O  0.88430576  0.33957367  0.84203889    -0.90300
O226        O  0.89977351  0.30957813  0.80739879    -0.83500
C227        C  0.88382362  0.31573068  0.82867379     1.11700
O228        O  0.90768539  0.45870883  0.74935748    -0.96600
Zr229      Zr  0.91335873  0.40850107  0.76006088     1.88900
O230        O  0.89381396  0.33060029  0.74823165    -0.73200
O231        O  0.86530463  0.40124632  0.83672581    -0.52500
O232        O  0.86741025  0.42857206  0.77373742    -0.97200
O233        O  0.91691093  0.41796189  0.70936228    -0.54400
O234        O  0.87897293  0.37562858  0.73939140    -0.73700
C235        C  0.87636797  0.34854566  0.73746541     0.98600
O236        O  0.94548478  0.28254173  0.78289600    -0.62600
O237        O  0.04279293  0.36448077  0.75215402    -0.57400
O238        O  0.95543566  0.31266146  0.73566104    -0.94000
O239        O  0.99105734  0.34264717  0.72250080    -0.92500
O240        O  0.04547442  0.35111629  0.82688882    -0.92800
O241        O  0.00761242  0.30742691  0.83766918    -0.91600
C242        C  0.97550455  0.32047108  0.71882222     1.17500
H243        H  0.02497408  0.40044667  0.80489743     0.33400
H244        H  0.94152242  0.32801915  0.83950181     0.44300
H245        H  0.94144182  0.36616382  0.72785874     0.37800
H246        H  0.91232467  0.43771578  0.81293586     0.34300
H247        H  0.00596832  0.33431227  0.88941835     0.26000
H248        H  0.85680722  0.39668826  0.85540799     0.32000
H249        H  0.85382888  0.41247818  0.77330077     0.37900
H250        H  0.05390433  0.35117811  0.84613623     0.32400
H251        H  0.04395346  0.35006287  0.76734100     0.31200
H252        H  0.01736133  0.39781197  0.70106538     0.32900
H253        H  0.91271419  0.39966007  0.69990966     0.31900
H254        H  0.99020677  0.29703436  0.83182618     0.35900
H255        H  0.96609442  0.28068747  0.77858121     0.28600
H256        H  0.97579894  0.49225784  0.82455313     0.32800
H257        H  0.92705709  0.46684257  0.75151356     0.35700
H258        H  0.04375530  0.35345144  0.73429118     0.28300
H259        H  0.94424228  0.27833537  0.80342670     0.41200
H260        H  0.92338797  0.35116797  0.88990959     0.31200
H261        H  0.97818355  0.35243063  0.89278105     0.38800
H262        H  0.93753112  0.42111029  0.70596029     0.30700
H263        H  0.86748075  0.42214118  0.83691444     0.30800
H264        H  0.94702101  0.48666850  0.80838257     0.31000
Zr265      Zr  0.75753828  0.92598476  0.33687225     2.17500
O266        O  0.73976384  0.92512579  0.28828183    -0.51300
O267        O  0.73091752  0.88271130  0.34729043    -0.74500
O268        O  0.78419174  0.89253958  0.30764015    -0.81300
O269        O  0.70724122  0.98764936  0.35209294    -0.83100
O270        O  0.82390076  0.87889007  0.33191798    -0.78700
O271        O  0.71288570  0.94955346  0.32289254    -0.90300
O272        O  0.72891680  0.87722238  0.39505957    -0.76300
O273        O  0.77887060  0.89892072  0.37387453    -0.85800
O274        O  0.73557169  0.94107744  0.37994064    -0.85500
O275        O  0.80791484  0.93700334  0.33480990    -0.72200
O276        O  0.76770406  0.97591108  0.34048207    -0.84400
Zr277      Zr  0.81773091  0.97581015  0.41934331     2.26400
Zr278      Zr  0.82873349  0.91021033  0.37304304     2.06300
Zr279      Zr  0.74672148  0.99048299  0.38447501     2.10000
Zr280      Zr  0.75723569  0.91459310  0.41668794     1.78800
O281        O  0.73888815  0.03686549  0.36319264    -0.93200
O282        O  0.77522607  0.87025067  0.43622721    -0.41000
O283        O  0.76777762  0.96427530  0.42213824    -0.77600
O284        O  0.80695693  0.92579395  0.41642634    -0.96300
O285        O  0.83940481  0.95968478  0.37655261    -0.89600
O286        O  0.79623041  0.00215161  0.38210633    -0.92400
C287        C  0.72330443  0.86917504  0.36969093     1.01300
C288        C  0.69914955  0.97153517  0.33177277     1.14200
C289        C  0.80702055  0.87767404  0.31045234     1.05000
O290        O  0.83391145  0.86228000  0.39152927    -0.94600
O291        O  0.86435019  0.91004366  0.41122414    -0.90300
O292        O  0.85749461  0.94929253  0.43865531    -0.83500
C293        C  0.87037611  0.92597764  0.43263915     1.11700
O294        O  0.80711033  0.99114684  0.28917079    -0.96600
Zr295      Zr  0.81790530  0.98634760  0.33955131     1.88900
O296        O  0.85949834  0.00468451  0.40726846    -0.73200
O297        O  0.87468089  0.90796384  0.34892603    -0.52500
O298        O  0.85905494  0.97308106  0.31076865    -0.97200
O299        O  0.80900501  0.03572438  0.32686898    -0.54400
O300        O  0.85868403  0.01128997  0.35951022    -0.73700
C301        C  0.86998299  0.01467720  0.38407379     0.98600
O302        O  0.81790947  0.97962700  0.47099324    -0.62600
O303        O  0.70477462  0.99295881  0.41500845    -0.57400
O304        O  0.79967125  0.02103011  0.43777763    -0.94000
O305        O  0.75418508  0.02544313  0.42142509    -0.92500
O306        O  0.70988340  0.92222124  0.43668898    -0.92800
O307        O  0.75667042  0.91407352  0.46833220    -0.91600
C308        C  0.77535534  0.03368056  0.43662318     1.17500
H309        H  0.71523148  0.93770807  0.37964453     0.33400
H310        H  0.81489094  0.91587170  0.43247021     0.44300
H311        H  0.79931005  0.02230325  0.38418744     0.37800
H312        H  0.81630541  0.93174372  0.31686197     0.34300
H313        H  0.75811758  0.86044289  0.44373571     0.26000
H314        H  0.88622231  0.92325471  0.35765952     0.32000
H315        H  0.86729977  0.99129782  0.30425756     0.37900
H316        H  0.70225471  0.90293079  0.44013478     0.32400
H317        H  0.69301189  0.00838793  0.40690681     0.31200
H318        H  0.71951629  0.04249509  0.36945364     0.32900
H319        H  0.81795109  0.04719046  0.34205941     0.31900
H320        H  0.76813941  0.93081785  0.47392800     0.35900
H321        H  0.79761092  0.98226324  0.47628994     0.28600
H322        H  0.73444278  0.90511516  0.28459057     0.32800
H323        H  0.82077146  0.00533771  0.28170535     0.35700
H324        H  0.69388287  0.97542574  0.41091559     0.28300
H325        H  0.82241144  0.96035224  0.47798927     0.41200
H326        H  0.81900834  0.85102495  0.38176897     0.31200
H327        H  0.78082382  0.85887914  0.41945365     0.38800
H328        H  0.78822480  0.03832613  0.32966767     0.30700
H329        H  0.88347277  0.89016677  0.35583133     0.30800
H330        H  0.75661504  0.92868430  0.27609916     0.31000
Zr331      Zr  0.06767831  0.82682428  0.72377898     2.17500
O332        O  0.06690348  0.77511914  0.72145041    -0.51300
O333        O  0.10493238  0.83024982  0.75966222    -0.74500
O334        O  0.10960324  0.80888437  0.70020912    -0.81300
O335        O  0.00001673  0.82404222  0.76643013    -0.83100
O336        O  0.12553737  0.84131050  0.66828807    -0.78700
O337        O  0.04250314  0.80142346  0.76101320    -0.90300
O338        O  0.10239620  0.87430934  0.77907902    -0.76300
O339        O  0.09519951  0.86884677  0.71825534    -0.85800
O340        O  0.04606135  0.86124233  0.75383073    -0.85500
O341        O  0.06445538  0.83796900  0.67399719    -0.72200
O342        O  0.01940075  0.83076231  0.70669881    -0.84400
Zr343      Zr  0.02217844  0.92120425  0.68322080     2.26400
Zr344      Zr  0.09164374  0.88075987  0.66906631     2.06300
Zr345      Zr  0.99841171  0.86590188  0.73661922     2.10000
Zr346      Zr  0.07319698  0.90316778  0.74813252     1.78800
O347        O  0.95370561  0.84218387  0.72509775    -0.93200
O348        O  0.12009410  0.92545199  0.74608619    -0.41000
O349        O  0.02490782  0.90907234  0.73256177    -0.77600
O350        O  0.07070231  0.91627387  0.69928532    -0.96300
O351        O  0.04379322  0.88702240  0.65276185    -0.89600
O352        O  0.99475074  0.87889907  0.68788853    -0.92400
C353        C  0.11265800  0.84918197  0.77770971     1.01300
C354        C  0.01793673  0.80441546  0.77268986     1.14200
C355        C  0.12714157  0.81732571  0.68111916     1.05000
O356        O  0.13923943  0.90090570  0.67416708    -0.94600
O357        O  0.09398612  0.92556430  0.64357661    -0.90300
O358        O  0.05252305  0.94918516  0.65238981    -0.83500
C359        C  0.07741036  0.94711310  0.64109899     1.11700
O360        O  0.01761554  0.79364070  0.65029085    -0.96600
Zr361      Zr  0.01659141  0.84485301  0.65770573     1.88900
O362        O  0.99502985  0.92081882  0.63936646    -0.73200
O363        O  0.09884125  0.86837368  0.61938663    -0.52500
O364        O  0.03665390  0.83381157  0.61127332    -0.97200
O365        O  0.96822093  0.82589210  0.65496739    -0.54400
O366        O  0.99298953  0.87538516  0.62321615    -0.73700
C367        C  0.98772555  0.90206013  0.62099400     0.98600
O368        O  0.01868413  0.97198314  0.69347594    -0.62600
O369        O  0.98057726  0.87788803  0.78375565    -0.57400
O370        O  0.97637627  0.93680494  0.70255007    -0.94000
O371        O  0.96539003  0.90516160  0.73716607    -0.92500
O372        O  0.05740952  0.91219880  0.79652040    -0.92800
O373        O  0.06963022  0.95359649  0.75878082    -0.91600
C374        C  0.96057345  0.92783879  0.72294655     1.17500
H375        H  0.04638211  0.85562703  0.77351871     0.33400
H376        H  0.08082685  0.93401498  0.69732368     0.44300
H377        H  0.97510267  0.88202782  0.68255569     0.37800
H378        H  0.07259520  0.82293316  0.66265277     0.34300
H379        H  0.12785611  0.92365108  0.76552371     0.26000
H380        H  0.11951340  0.87128006  0.61607799     0.32000
H381        H  0.04298099  0.85230287  0.60355734     0.37900
H382        H  0.03660979  0.91552518  0.79488123     0.32400
H383        H  0.96351623  0.86576731  0.78646478     0.31200
H384        H  0.94613089  0.83555739  0.74354713     0.32900
H385        H  0.95550962  0.84266180  0.65492610     0.31900
H386        H  0.06152053  0.96211422  0.74139229     0.35900
H387        H  0.01299991  0.97331479  0.71367291     0.28600
H388        H  0.08517362  0.76886820  0.72994584     0.32800
H389        H  0.00839932  0.79037694  0.63168178     0.35700
H390        H  0.99489518  0.87028184  0.79716736     0.28300
H391        H  0.03852872  0.97921153  0.69344205     0.41200
H392        H  0.14815938  0.88999246  0.68973289     0.31200
H393        H  0.13185909  0.91235138  0.73455780     0.38800
H394        H  0.96492426  0.81687071  0.67362975     0.30700
H395        H  0.09624329  0.84754168  0.61852160     0.30800
H396        H  0.06858809  0.77040314  0.70104326     0.31000
Zr397      Zr  0.42341026  0.81672618  0.97044432     2.17500
O398        O  0.47509122  0.81136770  0.96723440    -0.51300
O399        O  0.42228937  0.85623467  0.00310475    -0.74500
O400        O  0.44441540  0.85519645  0.94351602    -0.81300
O401        O  0.41996177  0.75495414  0.02132230    -0.83100
O402        O  0.41307641  0.86988579  0.90971367    -0.78700
O403        O  0.44633801  0.79414520  0.01083036    -0.90300
O404        O  0.37569501  0.86760393  0.01021090    -0.76300
O405        O  0.38350782  0.84555371  0.95855906    -0.85800
O406        O  0.38573429  0.80252035  0.00122749    -0.85500
O407        O  0.41419698  0.80810069  0.92106858    -0.72200
O408        O  0.41632362  0.76724385  0.96112896    -0.84400
Zr409      Zr  0.32826423  0.77198256  0.93079342     2.26400
Zr410      Zr  0.37293048  0.83633081  0.90982442     2.06300
Zr411      Zr  0.37766988  0.75333215  0.99131957     2.10000
Zr412      Zr  0.34594175  0.83103090  0.98899452     1.78800
O413        O  0.39715817  0.70544038  0.99175897    -0.93200
O414        O  0.32231101  0.87558534  0.97734274    -0.41000
O415        O  0.33702879  0.78166170  0.97988451    -0.77600
O416        O  0.33458316  0.82172034  0.94037164    -0.96300
O417        O  0.36560541  0.78704177  0.90003258    -0.89600
O418        O  0.36844537  0.74363872  0.94246864    -0.92400
C419        C  0.40255794  0.87209994  0.01320720     1.01300
C420        C  0.44144893  0.77154140  0.02522919     1.14200
C421        C  0.43700128  0.87155841  0.92305881     1.05000
O422        O  0.35121807  0.88327046  0.91062083    -0.94600
O423        O  0.33020758  0.83495184  0.87951282    -0.90300
O424        O  0.30345744  0.79742381  0.89414604    -0.83500
C425        C  0.30767338  0.81926393  0.87855028     1.11700
O426        O  0.45714327  0.75062819  0.91028091    -0.96600
Zr427      Zr  0.40584950  0.75889403  0.91207970     1.88900
O428        O  0.32990114  0.73932671  0.89090086    -0.73200
O429        O  0.39036310  0.83983688  0.86125064    -0.52500
O430        O  0.42622056  0.77310251  0.86673169    -0.97200
O431        O  0.41968469  0.70922785  0.91658390    -0.54400
O432        O  0.37628974  0.73445272  0.87767230    -0.73700
C433        C  0.34952264  0.72962505  0.87454407     0.98600
O434        O  0.27667484  0.77264524  0.93868968    -0.62600
O435        O  0.35873042  0.75063845  0.03938980    -0.57400
O436        O  0.30948559  0.72961779  0.95341091    -0.94000
O437        O  0.33721496  0.72055909  0.99193093    -0.92500
O438        O  0.33770611  0.82301470  0.03940566    -0.92800
O439        O  0.29586807  0.83151613  0.00297645    -0.91600
C440        C  0.31565537  0.71543384  0.97577782     1.17500
H441        H  0.39082097  0.80554297  0.02084687     0.33400
H442        H  0.31737798  0.83202278  0.93580799     0.44300
H443        H  0.36457717  0.72372595  0.93945832     0.37800
H444        H  0.43032534  0.81398755  0.90973207     0.34300
H445        H  0.31651226  0.88373778  0.99584313     0.26000
H446        H  0.38766191  0.86001891  0.85610874     0.32000
H447        H  0.43026877  0.75503557  0.85676173     0.37900
H448        H  0.35187568  0.83503463  0.04932601     0.32400
H449        H  0.37000894  0.73551164  0.04865098     0.31200
H450        H  0.40136264  0.70148160  0.01193888     0.32900
H451        H  0.40381072  0.69812527  0.90827957     0.31900
H452        H  0.28812699  0.81327939  0.99591154     0.35900
H453        H  0.27417967  0.76974005  0.95934225     0.28600
H454        H  0.48311062  0.82942498  0.97447387     0.32800
H455        H  0.46429624  0.75692219  0.92901645     0.35700
H456        H  0.36506306  0.76837259  0.04873876     0.28300
H457        H  0.27071975  0.79258791  0.93583696     0.41200
H458        H  0.34868630  0.88837223  0.89041778     0.31200
H459        H  0.33785951  0.88818664  0.97070951     0.38800
H460        H  0.41860448  0.70528324  0.93716787     0.30700
H461        H  0.41131534  0.83745603  0.86264278     0.30800
H462        H  0.47944400  0.81137940  0.94667456     0.31000
Zr463      Zr  0.31173785  0.52803188  0.56644830     2.17500
O464        O  0.30304061  0.53391078  0.51582870    -0.51300
O465        O  0.35016886  0.49348834  0.56444059    -0.74500
O466        O  0.35080061  0.55360927  0.54403506    -0.81300
O467        O  0.24803533  0.47924607  0.57382857    -0.83100
O468        O  0.36567899  0.58880861  0.57369197    -0.78700
O469        O  0.28535065  0.48875560  0.54441438    -0.90300
O470        O  0.36394602  0.48616799  0.60998224    -0.76300
O471        O  0.34352213  0.53833540  0.60460594    -0.85800
O472        O  0.29835641  0.49734283  0.60431311    -0.85500
O473        O  0.30563676  0.57766080  0.57750096    -0.72200
O474        O  0.26300073  0.53982869  0.57704407    -0.84400
Zr475      Zr  0.27486627  0.56735980  0.66534771     2.26400
Zr476      Zr  0.33685450  0.58717349  0.61684792     2.06300
Zr477      Zr  0.25002726  0.50943291  0.61552009     2.10000
Zr478      Zr  0.33004559  0.50772350  0.64215607     1.78800
O479        O  0.20182582  0.50822365  0.59626345    -0.93200
O480        O  0.37647891  0.51788278  0.66310294    -0.41000
O481        O  0.28142741  0.51807837  0.65461284    -0.77600
O482        O  0.32378861  0.55629166  0.65509882    -0.96300
O483        O  0.28856360  0.59862518  0.62807315    -0.89600
O484        O  0.24322192  0.55830297  0.62692432    -0.92400
C485        C  0.36696405  0.48298271  0.58314285     1.01300
C486        C  0.26264925  0.47484678  0.55114636     1.14200
C487        C  0.36689339  0.57482948  0.55028141     1.05000
O488        O  0.38642044  0.58508477  0.63212352    -0.94600
O489        O  0.34038743  0.61523120  0.66060531    -0.90300
O490        O  0.30365077  0.60233843  0.68946116    -0.83500
C491        C  0.32631876  0.61662478  0.68405409     1.11700
O492        O  0.24833637  0.59454392  0.53906951    -0.96600
Zr493      Zr  0.25746136  0.58888933  0.58957911     1.88900
O494        O  0.24316229  0.60793151  0.66698323    -0.73200
O495        O  0.34111109  0.63704800  0.60389754    -0.52500
O496        O  0.27241840  0.63545721  0.57287784    -0.97200
O497        O  0.20682373  0.58626288  0.57800057    -0.54400
O498        O  0.23574585  0.62273692  0.62171454    -0.73700
C499        C  0.23291427  0.62521404  0.64866968     0.98600
O500        O  0.28070558  0.55947852  0.71627654    -0.62600
O501        O  0.24553487  0.46200673  0.63556096    -0.57400
O502        O  0.23357206  0.54470230  0.68679727    -0.94000
O503        O  0.21701622  0.51198043  0.65530454    -0.92500
O504        O  0.32163287  0.45720204  0.64924919    -0.92800
O505        O  0.33529462  0.49361828  0.69152798    -0.91600
C506        C  0.21576614  0.52560369  0.67889935     1.17500
H507        H  0.30011590  0.47765368  0.59886901     0.33400
H508        H  0.33557466  0.55999291  0.67148374     0.44300
H509        H  0.22365399  0.56213972  0.63213020     0.37800
H510        H  0.31084297  0.58917636  0.56137874     0.34300
H511        H  0.38772559  0.50030682  0.66037203     0.26000
H512        H  0.36138685  0.63965456  0.59852845     0.32000
H513        H  0.25447406  0.64634067  0.57076520     0.37900
H514        H  0.33905832  0.44768470  0.64210782     0.32400
H515        H  0.26237475  0.45153088  0.62839181     0.31200
H516        H  0.19268904  0.49168192  0.60549795     0.32900
H517        H  0.19664872  0.58948985  0.59613489     0.31900
H518        H  0.33075601  0.51095496  0.70253189     0.35900
H519        H  0.27362967  0.54004535  0.72001566     0.28600
H520        H  0.32036167  0.52654241  0.50627841     0.32800
H521        H  0.25387256  0.57613148  0.53055534     0.35700
H522        H  0.24928055  0.46446550  0.65608484     0.28300
H523        H  0.30156833  0.55781060  0.71921094     0.41200
H524        H  0.39479484  0.60332516  0.62585497     0.31200
H525        H  0.38536952  0.53173329  0.65004818     0.38800
H526        H  0.20342894  0.56599241  0.57360226     0.30700
H527        H  0.33049852  0.63879905  0.58585052     0.30800
H528        H  0.30354010  0.55466323  0.51259523     0.31000
Zr529      Zr  0.53187516  0.56982428  0.31071236     2.17500
O530        O  0.53249048  0.51805860  0.31166450    -0.51300
O531        O  0.50151834  0.57586011  0.35169417    -0.74500
O532        O  0.56237990  0.55157567  0.34754944    -0.81300
O533        O  0.47349660  0.57128359  0.25543868    -0.83100
O534        O  0.60164280  0.57949500  0.35262425    -0.78700
O535        O  0.49019082  0.54501065  0.29230430    -0.90300
O536        O  0.49277537  0.62285110  0.35826414    -0.76300
O537        O  0.54837334  0.61129192  0.33464576    -0.85800
O538        O  0.50063486  0.60713125  0.29729104    -0.85500
O539        O  0.58045691  0.57615435  0.29580387    -0.72200
O540        O  0.53568554  0.57190904  0.26016907    -0.84400
Zr541      Zr  0.57037715  0.65839619  0.25343760     2.26400
Zr542      Zr  0.59637291  0.61889741  0.31898470     2.06300
Zr543      Zr  0.50554238  0.61062561  0.24710005     2.10000
Zr544      Zr  0.51746104  0.64853783  0.32038391     1.78800
O545        O  0.49442260  0.58717381  0.20239177    -0.93200
O546        O  0.53203783  0.67110064  0.36459084    -0.41000
O547        O  0.52200979  0.65284128  0.26976991    -0.77600
O548        O  0.56535275  0.65669395  0.30439911    -0.96300
O549        O  0.60094948  0.62106316  0.26851440    -0.89600
O550        O  0.55345730  0.61660947  0.23054768    -0.92400
C551        C  0.49021789  0.59658969  0.36522674     1.01300
C552        C  0.47211931  0.55017986  0.27252550     1.14200
C553        C  0.58649487  0.55756316  0.35891547     1.05000
O554        O  0.60172399  0.63941744  0.36608297    -0.94600
O555        O  0.62455470  0.66278816  0.31385901    -0.90300
O556        O  0.60961870  0.68503675  0.27363627    -0.83500
C557        C  0.62553662  0.68321265  0.29566039     1.11700
O558        O  0.58370267  0.52789533  0.24192127    -0.96600
Zr559      Zr  0.58400166  0.57944215  0.24543061     1.88900
O560        O  0.61114848  0.65183810  0.22173142    -0.73200
O561        O  0.64606132  0.60412454  0.31560257    -0.52500
O562        O  0.62966018  0.55683877  0.25534234    -0.97200
O563        O  0.57215380  0.56370105  0.19756000    -0.54400
O564        O  0.61791513  0.60440855  0.21601753    -0.73700
C565        C  0.62462369  0.63034098  0.21153529     0.98600
O566        O  0.56243838  0.70919588  0.24693609    -0.62600
O567        O  0.45833961  0.63216139  0.25015187    -0.57400
O568        O  0.54470747  0.67228795  0.21043516    -0.94000
O569        O  0.50346636  0.64670996  0.21092287    -0.92500
O570        O  0.46825882  0.66313507  0.31214453    -0.92800
O571        O  0.51227273  0.69997108  0.32020915    -0.91600
C572        C  0.51999712  0.66568433  0.20048268     1.17500
H573        H  0.48115728  0.60313797  0.30273074     0.33400
H574        H  0.57127987  0.67447696  0.31270892     0.44300
H575        H  0.55416178  0.61837168  0.21016224     0.37800
H576        H  0.59193815  0.56016955  0.30156676     0.34300
H577        H  0.51404423  0.67786870  0.37332579     0.26000
H578        H  0.65373254  0.60677283  0.33498812     0.32000
H579        H  0.64318891  0.57274790  0.25811451     0.37900
H580        H  0.45684454  0.65302970  0.32663733     0.32400
H581        H  0.44832309  0.62568360  0.23283144     0.31200
H582        H  0.47365655  0.59006651  0.19976607     0.32900
H583        H  0.57699169  0.57978928  0.18496137     0.31900
H584        H  0.50941454  0.70495984  0.30001620     0.35900
H585        H  0.54142425  0.71153841  0.24706206     0.28600
H586        H  0.52659216  0.51269562  0.33110895     0.32800
H587        H  0.57366424  0.52149544  0.25926095     0.35700
H588        H  0.44854048  0.62213039  0.26582228     0.28300
H589        H  0.56854702  0.71825944  0.26488134     0.41200
H590        H  0.59199845  0.65802057  0.36492600     0.31200
H591        H  0.53819666  0.65524883  0.37689958     0.38800
H592        H  0.55103934  0.56279739  0.19727940     0.30700
H593        H  0.64525628  0.58329066  0.31299427     0.30800
H594        H  0.55285627  0.51258572  0.31031169     0.31000
Zr595      Zr  0.66868259  0.27113482  0.57067771     2.17500
O596        O  0.72046396  0.26899235  0.56600446    -0.51300
O597        O  0.66285376  0.24066767  0.61175501    -0.74500
O598        O  0.69082487  0.29612892  0.60991012    -0.81300
O599        O  0.66413940  0.22111073  0.50738167    -0.83100
O600        O  0.66259052  0.33366197  0.62171320    -0.78700
O601        O  0.68662371  0.22725178  0.54980355    -0.90300
O602        O  0.61521642  0.23479535  0.61875667    -0.76300
O603        O  0.62844754  0.28623956  0.59758350    -0.85800
O604        O  0.62943244  0.24380655  0.55396244    -0.85500
O605        O  0.66409444  0.32116714  0.56164563    -0.72200
O606        O  0.66488641  0.28189375  0.52105509    -0.84400
Zr607      Zr  0.57880407  0.31863067  0.52236339     2.26400
Zr608      Zr  0.62278873  0.33569576  0.58816817     2.06300
Zr609      Zr  0.62491386  0.25485802  0.50467088     2.10000
Zr610      Zr  0.58951205  0.25871767  0.58086060     1.78800
O611        O  0.64767823  0.25454894  0.45821342    -0.93200
O612        O  0.56289621  0.26958613  0.62394406    -0.41000
O613        O  0.58371797  0.26878006  0.53130689    -0.77600
O614        O  0.58280988  0.30825114  0.57207929    -0.96300
O615        O  0.61779681  0.34633993  0.53896331    -0.89600
O616        O  0.61923446  0.30431457  0.49524096    -0.92400
C617        C  0.64141357  0.23102145  0.62573445     1.01300
C618        C  0.68254361  0.21399926  0.52629888     1.14200
C619        C  0.68484137  0.31801147  0.62507693     1.05000
O620        O  0.60128045  0.33854397  0.63511141    -0.94600
O621        O  0.58178603  0.36783166  0.58695944    -0.90300
O622        O  0.55674890  0.35819199  0.54675155    -0.83500
C623        C  0.56080884  0.37202670  0.56987072     1.11700
O624        O  0.71015871  0.33169066  0.50840215    -0.96600
Zr625      Zr  0.65825127  0.33166014  0.51239547     1.88900
O626        O  0.58511440  0.35756974  0.48940755    -0.73200
O627        O  0.64223884  0.38361434  0.58994922    -0.52500
O628        O  0.67739443  0.37706036  0.52834756    -0.97200
O629        O  0.67569396  0.32508802  0.46408361    -0.54400
O630        O  0.63249276  0.36737724  0.48557080    -0.73700
C631        C  0.60613159  0.37233816  0.48010830     0.98600
O632        O  0.52664923  0.31664256  0.52336350    -0.62600
O633        O  0.60642517  0.20677780  0.49978408    -0.57400
O634        O  0.55868458  0.29630235  0.48028832    -0.94000
O635        O  0.58488421  0.25661510  0.47155263    -0.92500
O636        O  0.58011251  0.20863505  0.57198755    -0.92800
O637        O  0.53833277  0.25081083  0.57666041    -0.91600
C638        C  0.56402991  0.27355945  0.46622244     1.17500
H639        H  0.63247127  0.22374939  0.55681814     0.33400
H640        H  0.56567721  0.31411029  0.58187799     0.44300
H641        H  0.61631465  0.30764901  0.47524181     0.37800
H642        H  0.68085714  0.33115485  0.56817391     0.34300
H643        H  0.55830518  0.25085665  0.63228192     0.26000
H644        H  0.63979570  0.38959720  0.60994593     0.32000
H645        H  0.66065027  0.38980608  0.52969896     0.37900
H646        H  0.57891168  0.19990607  0.59103588     0.32400
H647        H  0.58575007  0.20837919  0.50386405     0.31200
H648        H  0.63542615  0.24220675  0.44634737     0.32900
H649        H  0.65997512  0.33148041  0.45163041     0.31900
H650        H  0.53088024  0.26860698  0.56836195     0.35900
H651        H  0.52166561  0.29671215  0.51890829     0.28600
H652        H  0.72747508  0.26202201  0.58453134     0.32800
H653        H  0.71510171  0.34932826  0.49811359     0.35700
H654        H  0.60752125  0.20262024  0.47921772     0.28300
H655        H  0.52126517  0.31864620  0.54358669     0.41200
H656        H  0.60878558  0.32183467  0.64537475     0.31200
H657        H  0.57722668  0.27783867  0.63698634     0.38800
H658        H  0.67635708  0.30426597  0.46142928     0.30700
H659        H  0.66310253  0.38120698  0.58760902     0.30800
H660        H  0.72672339  0.28904472  0.56511549     0.31000
Zr661      Zr  0.67485315  0.02695376  0.91866854     2.17500
O662        O  0.66780061  0.02027432  0.96954048    -0.51300
O663        O  0.63610160  0.99446299  0.90652805    -0.74500
O664        O  0.63560437  0.05458090  0.93773224    -0.81300
O665        O  0.73964327  0.97914975  0.92276310    -0.83100
O666        O  0.62911107  0.09433415  0.91135014    -0.78700
O667        O  0.69692963  0.98761633  0.94404558    -0.90300
O668        O  0.63832098  0.98465958  0.85936159    -0.76300
O669        O  0.65256469  0.04432462  0.87678181    -0.85800
O670        O  0.69386617  0.99949009  0.88065783    -0.85500
O671        O  0.68753629  0.07647002  0.91661467    -0.72200
O672        O  0.72543802  0.03546898  0.91981445    -0.84400
Zr673      Zr  0.73486545  0.07469614  0.83580006     2.26400
Zr674      Zr  0.66546738  0.09346854  0.87394095     2.06300
Zr675      Zr  0.74398300  0.00861444  0.88097365     2.10000
Zr676      Zr  0.67223824  0.01731752  0.83872705     1.78800
O677        O  0.79059539  0.99992219  0.90203891    -0.93200
O678        O  0.62647212  0.02909281  0.81724126    -0.41000
O679        O  0.72266910  0.02528609  0.83815185    -0.77600
O680        O  0.68413321  0.06647616  0.83483416    -0.96300
O681        O  0.71585614  0.10205804  0.87385631    -0.89600
O682        O  0.75734867  0.05750102  0.87763795    -0.92400
C683        C  0.62759998  0.98142640  0.88411038     1.01300
C684        C  0.72087302  0.97448842  0.94207242     1.14200
C685        C  0.62284592  0.07802433  0.93230892     1.05000
O686        O  0.61955338  0.09785013  0.85024355    -0.94600
O687        O  0.67133962  0.12556045  0.83358717    -0.90300
O688        O  0.71188336  0.11284479  0.81016506    -0.83500
C689        C  0.68930589  0.12799084  0.81305272     1.11700
O690        O  0.73493154  0.08655154  0.96720412    -0.96600
Zr691      Zr  0.73803336  0.08457967  0.91560467     1.88900
O692        O  0.76692426  0.11397711  0.84633158    -0.73200
O693        O  0.66393219  0.14137478  0.89337512    -0.52500
O694        O  0.72551618  0.13162645  0.93312468    -0.97200
O695        O  0.78278362  0.07138239  0.93842314    -0.54400
O696        O  0.77223837  0.11687295  0.89418115    -0.73700
C697        C  0.77776253  0.12496164  0.86881250     0.98600
O698        O  0.74603016  0.07316978  0.78525926    -0.62600
O699        O  0.74326379  0.96029216  0.86256741    -0.57400
O700        O  0.77660326  0.04924268  0.81818097    -0.94000
O701        O  0.77959693  0.00856150  0.84380765    -0.92500
O702        O  0.68520912  0.97148386  0.81862904    -0.92800
O703        O  0.67477884  0.01724383  0.78705623    -0.91600
C704        C  0.78796113  0.02511438  0.82386283     1.17500
H705        H  0.69010017  0.97949501  0.88318057     0.33400
H706        H  0.67594641  0.07306236  0.81727281     0.44300
H707        H  0.77782035  0.05964339  0.87645115     0.37800
H708        H  0.68017537  0.08645119  0.93295695     0.34300
H709        H  0.61963508  0.01105747  0.80884359     0.26000
H710        H  0.64367377  0.14715383  0.89183453     0.32000
H711        H  0.72246398  0.14317159  0.91587177     0.37900
H712        H  0.66701819  0.96343454  0.81156712     0.32400
H713        H  0.74251680  0.96246837  0.84170102     0.31200
H714        H  0.79938529  0.01891003  0.90405126     0.32900
H715        H  0.79700609  0.07013818  0.92293388     0.31900
H716        H  0.67805401  0.03724798  0.78158525     0.35900
H717        H  0.72736086  0.07273909  0.77543677     0.28600
H718        H  0.64780906  0.01380465  0.97183056     0.32800
H719        H  0.74933123  0.10073096  0.97321164     0.35700
H720        H  0.76267200  0.95291710  0.86638621     0.28300
H721        H  0.75429492  0.09196576  0.78070274     0.41200
H722        H  0.62161236  0.08650204  0.83267783     0.31200
H723        H  0.61346885  0.03250775  0.83346193     0.38800
H724        H  0.77988551  0.05151099  0.94458164     0.30700
H725        H  0.66715100  0.13896144  0.91398054     0.30800
H726        H  0.66838834  0.03948680  0.97806496     0.31000
Zr727      Zr  0.92229413  0.68672362  0.02138570     2.17500
O728        O  0.97425588  0.68561591  0.01762672    -0.51300
O729        O  0.91263032  0.64528016  0.99190342    -0.74500
O730        O  0.94292687  0.64964479  0.05026064    -0.81300
O731        O  0.91917540  0.74397981  0.96594856    -0.83100
O732        O  0.91529737  0.64316751  0.08942673    -0.78700
O733        O  0.94422288  0.70442067  0.97775618    -0.90300
O734        O  0.86533688  0.64513708  0.98103027    -0.76300
O735        O  0.88058193  0.66316854  0.03831986    -0.85800
O736        O  0.88369855  0.70304012  0.99303424    -0.85500
O737        O  0.91794454  0.70046056  0.07050623    -0.72200
O738        O  0.92141103  0.73728941  0.02822657    -0.84400
Zr739      Zr  0.83525184  0.74438013  0.06523711     2.26400
Zr740      Zr  0.87543440  0.67702179  0.08689308     2.06300
Zr741      Zr  0.88209352  0.75305032  0.00029340     2.10000
Zr742      Zr  0.84205202  0.68029950  0.01031126     1.78800
O743        O  0.90912849  0.79667060  0.99374133    -0.93200
O744        O  0.82114390  0.63559089  0.02586450    -0.41000
O745        O  0.83926294  0.73073313  0.01632550    -0.77600
O746        O  0.83620277  0.69371475  0.05873320    -0.96300
O747        O  0.87356531  0.72729690  0.09368968    -0.89600
O748        O  0.87713909  0.76751881  0.04856191    -0.92400
C749        C  0.89068311  0.63523043  0.97899496     1.01300
C750        C  0.93866814  0.72543780  0.96132930     1.14200
C751        C  0.93731117  0.63754977  0.07398193     1.05000
O752        O  0.85295598  0.63054237  0.08992651    -0.94600
O753        O  0.83319471  0.68235590  0.11738483    -0.90300
O754        O  0.81100342  0.72374463  0.10556824    -0.83500
C755        C  0.81328399  0.70103951  0.12032870     1.11700
O756        O  0.96713076  0.75132987  0.07369233    -0.96600
Zr757      Zr  0.91518571  0.75078296  0.07700317     1.88900
O758        O  0.84322838  0.77633440  0.10480095    -0.73200
O759        O  0.89223679  0.67635050  0.13575849    -0.52500
O760        O  0.93714581  0.73993450  0.12250917    -0.97200
O761        O  0.93165604  0.79885496  0.06683461    -0.54400
O762        O  0.89106984  0.78076036  0.11171836    -0.73700
C763        C  0.86498359  0.78612092  0.11814082     0.98600
O764        O  0.78342040  0.74864765  0.06164237    -0.62600
O765        O  0.85992905  0.75652818  0.95369254    -0.57400
O766        O  0.82026524  0.78787330  0.04084604    -0.94000
O767        O  0.84703157  0.79042379  0.00058367    -0.92500
O768        O  0.82309325  0.68769920  0.96280059    -0.92800
O769        O  0.79018978  0.68215986  0.00766111    -0.91600
C770        C  0.82756038  0.79967150  0.01728595     1.17500
H771        H  0.88658411  0.69843965  0.97327181     0.33400
H772        H  0.81847693  0.68540326  0.06509548     0.44300
H773        H  0.87553999  0.78787406  0.05021040     0.37800
H774        H  0.93435557  0.69415390  0.08112803     0.34300
H775        H  0.81349000  0.62683528  0.00834445     0.26000
H776        H  0.88956358  0.65648204  0.14202284     0.32000
H777        H  0.92094729  0.73524221  0.13517272     0.37900
H778        H  0.84001846  0.68870137  0.95025660     0.32400
H779        H  0.87229975  0.76970415  0.94289357     0.31200
H780        H  0.90068264  0.80557470  0.97670020     0.32900
H781        H  0.91542283  0.81152932  0.07134235     0.31900
H782        H  0.78532025  0.70196500  0.01275649     0.35900
H783        H  0.77953857  0.75277734  0.04142895     0.28600
H784        H  0.97902335  0.66629628  0.01081991     0.32800
H785        H  0.97347083  0.76703551  0.08615984     0.35700
H786        H  0.86314728  0.73780477  0.94470670     0.28300
H787        H  0.77604462  0.72912266  0.06419367     0.41200
H788        H  0.85670144  0.62414909  0.10956365     0.31200
H789        H  0.83764556  0.62353340  0.03098724     0.38800
H790        H  0.93337195  0.79959382  0.04592885     0.30700
H791        H  0.91319258  0.67876233  0.13439119     0.30800
H792        H  0.98145185  0.68640084  0.03735510     0.31000
C793        C  0.76228334  0.91729218  0.98395144     0.18700
C794        C  0.79155159  0.91239792  0.98783186    -0.19400
C795        C  0.80114238  0.88767782  0.00086979    -0.11700
C796        C  0.78165950  0.86702204  0.01024267     0.20900
C797        C  0.75231442  0.87249785  0.00796212    -0.21000
C798        C  0.74261992  0.89735172  0.99471426    -0.11900
C799        C  0.79202497  0.83924687  0.02097394    -0.16000
C800        C  0.81417633  0.82641932  0.00816767    -0.29900
C801        C  0.75389921  0.94194027  0.96616787    -0.04100
C802        C  0.72719156  0.95211504  0.96319355    -0.40700
H803        H  0.80718846  0.92741757  0.97997785     0.12100
H804        H  0.82391981  0.88445334  0.00308916     0.11700
H805        H  0.73693305  0.85693337  0.01519283     0.11200
H806        H  0.71989745  0.90014573  0.99193159     0.11400
H807        H  0.78090457  0.82892794  0.03835795     0.14100
H808        H  0.82345715  0.83626966  0.98945723     0.12900
H809        H  0.77095902  0.95192788  0.95411104     0.10600
H810        H  0.70977631  0.94397438  0.97598946     0.12600
C811        C  0.67818535  0.19865682  0.69179741     0.18700
C812        C  0.70665619  0.19295369  0.69911695    -0.19400
C813        C  0.71316643  0.17778929  0.72374515    -0.11700
C814        C  0.69139784  0.16851531  0.74198030     0.20900
C815        C  0.66288018  0.17454415  0.73496859    -0.21000
C816        C  0.65634298  0.18957917  0.71026341    -0.11900
C817        C  0.69906555  0.15096669  0.76695841    -0.16000
C818        C  0.68269112  0.14864614  0.79040727    -0.29900
C819        C  0.67234576  0.21430206  0.66497482    -0.04100
C820        C  0.64673270  0.21472270  0.65196895    -0.40700
H821        H  0.72393705  0.19984600  0.68547201     0.12100
H822        H  0.73530393  0.17322051  0.72854344     0.11700
H823        H  0.64547627  0.16713030  0.74811499     0.11200
H824        H  0.63415403  0.19406173  0.70597538     0.11400
H825        H  0.71898526  0.13920783  0.76570967     0.14100
H826        H  0.66334896  0.16113210  0.79252964     0.12900
H827        H  0.69010289  0.22555340  0.65526737     0.10600
H828        H  0.62873611  0.20333431  0.66086412     0.12600
C829        C  0.60956440  0.44135678  0.43630580     0.18700
C830        C  0.62460242  0.46709452  0.43842606    -0.19400
C831        C  0.61682325  0.49052906  0.42181003    -0.11700
C832        C  0.59396589  0.48840201  0.40256526     0.20900
C833        C  0.57934005  0.46250086  0.40027638    -0.21000
C834        C  0.58712731  0.43924448  0.41668088    -0.11900
C835        C  0.58410956  0.51209498  0.38429116    -0.16000
C836        C  0.59777206  0.53696903  0.37988756    -0.29900
C837        C  0.61775239  0.41685618  0.45435675    -0.04100
C838        C  0.59882237  0.39672309  0.46200364    -0.40700
H839        H  0.64212796  0.46917944  0.45325282     0.12100
H840        H  0.62853766  0.51012622  0.42437031     0.11700
H841        H  0.56183868  0.46009347  0.38545420     0.11200
H842        H  0.57571527  0.41953380  0.41353441     0.11400
H843        H  0.56446792  0.50806745  0.37271778     0.14100
H844        H  0.61783264  0.54166271  0.39032530     0.12900
H845        H  0.63947226  0.41595272  0.46238019     0.10600
H846        H  0.57658940  0.39868389  0.45587456     0.12600
C847        C  0.69752313  0.65914955  0.18611614     0.18700
C848        C  0.71491645  0.68206345  0.19426694    -0.19400
C849        C  0.74222457  0.68555091  0.18267813    -0.11700
C850        C  0.75280717  0.66610302  0.16259103     0.20900
C851        C  0.73600422  0.64261467  0.15527954    -0.21000
C852        C  0.70864744  0.63921108  0.16666190    -0.11900
C853        C  0.78051077  0.67036637  0.14774030    -0.16000
C854        C  0.79030522  0.69636094  0.14123213    -0.29900
C855        C  0.66844428  0.65669083  0.19897990    -0.04100
C856        C  0.65047579  0.63487027  0.19429264    -0.40700
H857        H  0.70728465  0.69748023  0.20956474     0.12100
H858        H  0.75495135  0.70350060  0.18942673     0.11700
H859        H  0.74372270  0.62726051  0.13996006     0.11200
H860        H  0.69655262  0.62102319  0.15969362     0.11400
H861        H  0.79095531  0.65191982  0.13854108     0.14100
H862        H  0.77832919  0.71493089  0.14792468     0.12900
H863        H  0.66221218  0.67275869  0.21436520     0.10600
H864        H  0.65625929  0.61771098  0.18016197     0.12600
C865        C  0.49182868  0.41709271  0.56883049     0.18700
C866        C  0.47335953  0.42628087  0.54727450    -0.19400
C867        C  0.44814938  0.44076237  0.55377135    -0.11700
C868        C  0.44067227  0.44612887  0.58218091     0.20900
C869        C  0.45942779  0.43743949  0.60370874    -0.21000
C870        C  0.48465446  0.42298776  0.59720257    -0.11900
C871        C  0.41397553  0.46098071  0.59057525    -0.16000
C872        C  0.39199446  0.46680948  0.57305915    -0.29900
C873        C  0.51685479  0.39941832  0.56079091    -0.04100
C874        C  0.53907037  0.39338636  0.57796996    -0.40700
H875        H  0.47832972  0.42197957  0.52523426     0.12100
H876        H  0.43482833  0.44760383  0.53640376     0.11700
H877        H  0.45429177  0.44139333  0.62577869     0.11200
H878        H  0.49785849  0.41578373  0.61453232     0.11400
H879        H  0.41243478  0.46751360  0.61265048     0.14100
H880        H  0.39253686  0.46073652  0.55089864     0.12900
H881        H  0.51644012  0.39020160  0.53964577     0.10600
H882        H  0.54086340  0.40320502  0.59870675     0.12600
C883        C  0.40905121  0.58189595  0.47972291     0.18700
C884        C  0.41118742  0.56459046  0.45557476    -0.19400
C885        C  0.42809474  0.57257957  0.43254517    -0.11700
C886        C  0.44359786  0.59816460  0.43307786     0.20900
C887        C  0.44127040  0.61573561  0.45704998    -0.21000
C888        C  0.42425779  0.60772298  0.48020321    -0.11900
C889        C  0.46143304  0.60735330  0.40854257    -0.16000
C890        C  0.47304319  0.58865094  0.39027829    -0.29900
C891        C  0.38963319  0.57248823  0.50294994    -0.04100
C892        C  0.38794488  0.58448175  0.52887731    -0.40700
H893        H  0.39942437  0.54482397  0.45434334     0.12100
H894        H  0.42830598  0.55889439  0.41411545     0.11700
H895        H  0.45265887  0.63573150  0.45786285     0.11200
H896        H  0.42279998  0.62210664  0.49800537     0.11400
H897        H  0.46564405  0.62986737  0.40587108     0.14100
H898        H  0.47051019  0.56607502  0.39401716     0.12900
H899        H  0.37580372  0.55455889  0.49825327     0.10600
H900        H  0.40173485  0.60203502  0.53462078     0.12600
C901        C  0.50997720  0.70951362  0.13246158     0.18700
C902        C  0.51122473  0.73833241  0.12509690    -0.19400
C903        C  0.49624524  0.74840291  0.10134090    -0.11700
C904        C  0.48013540  0.72956604  0.08442750     0.20900
C905        C  0.48028248  0.70061149  0.09115775    -0.21000
C906        C  0.49513072  0.69066739  0.11466751    -0.11900
C907        C  0.46133215  0.73874639  0.06074330    -0.16000
C908        C  0.46192079  0.76432014  0.04807479    -0.29900
C909        C  0.52285705  0.69914441  0.15930696    -0.04100
C910        C  0.50898935  0.67957026  0.17479497    -0.40700
H911        H  0.52273414  0.75319653  0.13839185     0.12100
H912        H  0.49655353  0.77091726  0.09702597     0.11700
H913        H  0.46836499  0.68556139  0.07842314     0.11200
H914        H  0.49455873  0.66815444  0.11919418     0.11400
H915        H  0.44604025  0.72313965  0.05312599     0.14100
H916        H  0.47773283  0.78004539  0.05403883     0.12900
H917        H  0.54302199  0.70790798  0.16656605     0.10600
H918        H  0.48797121  0.67261756  0.16790223     0.12600
C919        C  0.55558288  0.94737423  0.90338054     0.18700
C920        C  0.52772397  0.95805058  0.90630207    -0.19400
C921        C  0.50453069  0.93960693  0.91022282    -0.11700
C922        C  0.50899413  0.91014241  0.91178302     0.20900
C923        C  0.53683360  0.89957585  0.90863710    -0.21000
C924        C  0.55984859  0.91789605  0.90429913    -0.11900
C925        C  0.48599429  0.88981174  0.91937061    -0.16000
C926        C  0.45792456  0.89344905  0.91412232    -0.29900
C927        C  0.58004912  0.96730684  0.90119892    -0.04100
C928        C  0.60390602  0.96107879  0.88660209    -0.40700
H929        H  0.52396950  0.98072383  0.90588206     0.12100
H930        H  0.48343534  0.94848772  0.91316894     0.11700
H931        H  0.54088414  0.87699330  0.91008625     0.11200
H932        H  0.58108446  0.90897295  0.90280499     0.11400
H933        H  0.49286622  0.87012267  0.92922040     0.14100
H934        H  0.45049684  0.91177190  0.90232917     0.12900
H935        H  0.57794878  0.98815485  0.91088598     0.10600
H936        H  0.60513967  0.94165426  0.87423600     0.12600
C937        C  0.33594012  0.65173437  0.75771357     0.18700
C938        C  0.31864315  0.65172035  0.78205912    -0.19400
C939        C  0.32554543  0.66842787  0.80554734    -0.11700
C940        C  0.35009973  0.68559983  0.80526562     0.20900
C941        C  0.36773949  0.68522374  0.78114140    -0.21000
C942        C  0.36076215  0.66853807  0.75754339    -0.11900
C943        C  0.35860680  0.70326250  0.83001043    -0.16000
C944        C  0.34034236  0.71180725  0.85042366    -0.29900
C945        C  0.32742234  0.63324998  0.73359654    -0.04100
C946        C  0.33707918  0.63564142  0.70670237    -0.40700
H947        H  0.29961632  0.63866294  0.78294218     0.12100
H948        H  0.31186552  0.66725858  0.82398851     0.11700
H949        H  0.38701860  0.69791924  0.78054329     0.11200
H950        H  0.37509926  0.66857665  0.73956390     0.11400
H951        H  0.38071209  0.71022653  0.83094015     0.14100
H952        H  0.31784515  0.70653368  0.84913492     0.12900
H953        H  0.31151212  0.61711040  0.73826912     0.10600
H954        H  0.35290489  0.65146752  0.70110295     0.12600
C955        C  0.97515312  0.76895239  0.83265673     0.18700
C956        C  0.94598016  0.76376733  0.83637801    -0.19400
C957        C  0.93577394  0.75267703  0.86174859    -0.11700
C958        C  0.95444028  0.74666719  0.88417285     0.20900
C959        C  0.98395235  0.75065909  0.88020367    -0.21000
C960        C  0.99426633  0.76172671  0.85453012    -0.11900
C961        C  0.94142172  0.73980195  0.91195733    -0.16000
C962        C  0.95479101  0.72847142  0.93453464    -0.29900
C963        C  0.98391496  0.78519933  0.80728197    -0.04100
C964        C  0.01017312  0.78468395  0.79577991    -0.40700
H965        H  0.93084923  0.76928070  0.81991762     0.12100
H966        H  0.91294771  0.74987060  0.86426244     0.11700
H967        H  0.99886807  0.74676632  0.89725414     0.11200
H968        H  0.01685446  0.76612122  0.85253036     0.11400
H969        H  0.91882247  0.74476369  0.91399212     0.14100
H970        H  0.97664674  0.72097798  0.93317589     0.12900
H971        H  0.96767418  0.79863874  0.79778820     0.10600
H972        H  0.02634017  0.77035012  0.80389884     0.12600
C973        C  0.89181586  0.94976200  0.76279710     0.18700
C974        C  0.87367415  0.93421324  0.78062929    -0.19400
C975        C  0.85132811  0.94737349  0.79493678    -0.11700
C976        C  0.84631703  0.97651475  0.79183201     0.20900
C977        C  0.86421298  0.99230048  0.77369778    -0.21000
C978        C  0.88681859  0.97901584  0.75928561    -0.11900
C979        C  0.82275302  0.98903460  0.80884634    -0.16000
C980        C  0.81215133  0.01546115  0.80602740    -0.29900
C981        C  0.91642795  0.93440013  0.75019542    -0.04100
C982        C  0.93526493  0.94482002  0.73121967    -0.40700
H983        H  0.87703558  0.91170896  0.78391165     0.12100
H984        H  0.83800843  0.93464512  0.80877046     0.11700
H985        H  0.86136698  0.01488677  0.77101670     0.11200
H986        H  0.90055427  0.99186233  0.74608315     0.11400
H987        H  0.81308422  0.97507733  0.82448775     0.14100
H988        H  0.82044319  0.02984564  0.79010415     0.12900
H989        H  0.91950167  0.91283451  0.75774736     0.10600
H990        H  0.93263395  0.96578997  0.72218390     0.12600
C991        C  0.19744158  0.69849644  0.65505020     0.18700
C992        C  0.17780480  0.69674160  0.67750963    -0.19400
C993        C  0.16406233  0.72101027  0.68739532    -0.11700
C994        C  0.16920254  0.74753792  0.67490383     0.20900
C995        C  0.18880985  0.74936491  0.65234367    -0.21000
C996        C  0.20266454  0.72497269  0.64246019    -0.11900
C997        C  0.15242692  0.77200686  0.68555281    -0.16000
C998        C  0.14963907  0.79718317  0.67229328    -0.29900
C999        C  0.21221808  0.67302843  0.64389853    -0.04100
C1000       C  0.21712789  0.64981881  0.65974591    -0.40700
H1001       H  0.17242561  0.67662048  0.68713433     0.12100
H1002       H  0.14880279  0.71889100  0.70455686     0.11700
H1003       H  0.19360288  0.76936373  0.64223479     0.11200
H1004       H  0.21763225  0.72680102  0.62502184     0.11400
H1005       H  0.13963447  0.76805178  0.70439417     0.14100
H1006       H  0.16190295  0.80216388  0.65344953     0.12900
H1007       H  0.22051652  0.67395430  0.62237495     0.10600
H1008       H  0.21107772  0.64939717  0.68196276     0.12600
C1009       C  0.23319425  0.82095248  0.84360181     0.18700
C1010       C  0.20567420  0.81943539  0.85535610    -0.19400
C1011       C  0.18151249  0.82207219  0.83822623    -0.11700
C1012       C  0.18441348  0.82575127  0.80880505     0.20900
C1013       C  0.21192149  0.82674337  0.79693645    -0.21000
C1014       C  0.23616259  0.82466256  0.81419348    -0.11900
C1015       C  0.15914595  0.82841927  0.79003482    -0.16000
C1016       C  0.13542124  0.84232276  0.79808212    -0.29900
C1017       C  0.25797484  0.81590557  0.86241601    -0.04100
C1018       C  0.28445266  0.82662734  0.85851724    -0.40700
H1019       H  0.20286676  0.81606621  0.87791717     0.12100
H1020       H  0.16060837  0.82059765  0.84793474     0.11700
H1021       H  0.21463662  0.82933506  0.77426916     0.11200
H1022       H  0.25708358  0.82509891  0.80443401     0.11400
H1023       H  0.16116858  0.82138871  0.76814629     0.14100
H1024       H  0.13445276  0.85224505  0.81887173     0.12900
H1025       H  0.25375694  0.80309121  0.88111178     0.10600
H1026       H  0.28878775  0.84120852  0.84123617     0.12600
C1027       C  0.66825258  0.74442336  0.32993243     0.18700
C1028       C  0.66427698  0.75899656  0.35561254    -0.19400
C1029       C  0.67619093  0.78593125  0.35990199    -0.11700
C1030       C  0.69289816  0.79886822  0.33864523     0.20900
C1031       C  0.69739702  0.78395879  0.31317857    -0.21000
C1032       C  0.68536573  0.75706638  0.30885960    -0.11900
C1033       C  0.70588662  0.82771270  0.34188014    -0.16000
C1034       C  0.70777239  0.84192535  0.36668477    -0.29900
C1035       C  0.65343308  0.71666169  0.32564336    -0.04100
C1036       C  0.64549857  0.70719835  0.29988239    -0.40700
H1037       H  0.65120741  0.74981987  0.37220622     0.12100
H1038       H  0.67163529  0.79652239  0.37971513     0.11700
H1039       H  0.71032704  0.79315784  0.29648559     0.11200
H1040       H  0.68966051  0.74626626  0.28905002     0.11400
H1041       H  0.71550153  0.83711998  0.32312187     0.14100
H1042       H  0.69968140  0.83258245  0.38606347     0.12900
H1043       H  0.64600625  0.70532303  0.34430788     0.10600
H1044       H  0.65048042  0.71973390  0.28123347     0.12600
C1045       C  0.81814761  0.84828969  0.23516301     0.18700
C1046       C  0.82626572  0.86187038  0.20992564    -0.19400
C1047       C  0.83365620  0.84600139  0.18591029    -0.11700
C1048       C  0.83224838  0.81624533  0.18654006     0.20900
C1049       C  0.82367245  0.80266969  0.21161848    -0.21000
C1050       C  0.81707468  0.81851108  0.23588563    -0.11900
C1051       C  0.83790622  0.79904151  0.16083842    -0.16000
C1052       C  0.85963233  0.80446980  0.14296113    -0.29900
C1053       C  0.80924863  0.86571601  0.25980747    -0.04100
C1054       C  0.81507662  0.85868074  0.28684678    -0.40700
H1055       H  0.82688576  0.88482110  0.20882072     0.12100
H1056       H  0.83960403  0.85697849  0.16662601     0.11700
H1057       H  0.82210576  0.77975059  0.21240574     0.11200
H1058       H  0.81026425  0.80752869  0.25487924     0.11400
H1059       H  0.82478095  0.78030848  0.15740917     0.14100
H1060       H  0.87473186  0.82131192  0.14774212     0.12900
H1061       H  0.79902289  0.88594583  0.25542590     0.10600
H1062       H  0.82781668  0.84000005  0.29144500     0.12600
C1063       C  0.95099577  0.90559101  0.54717037     0.18700
C1064       C  0.94010175  0.88513629  0.52832889    -0.19400
C1065       C  0.92450568  0.89317265  0.50430919    -0.11700
C1066       C  0.91964437  0.92203176  0.49845403     0.20900
C1067       C  0.93123856  0.94248388  0.51681232    -0.21000
C1068       C  0.94687502  0.93447436  0.54073965    -0.11900
C1069       C  0.90070513  0.93183982  0.47510523    -0.16000
C1070       C  0.89260999  0.91598260  0.45263697    -0.29900
C1071       C  0.96642323  0.89578185  0.57307212    -0.04100
C1072       C  0.97236790  0.91245778  0.59559943    -0.40700
H1073       H  0.94307757  0.86275083  0.53257640     0.12100
H1074       H  0.91554976  0.87667823  0.49107089     0.11700
H1075       H  0.92790204  0.96486833  0.51279686     0.11200
H1076       H  0.95556054  0.95110349  0.55395062     0.11400
H1077       H  0.89246255  0.95331665  0.47699662     0.14100
H1078       H  0.90137634  0.89493091  0.44939804     0.12900
H1079       H  0.97254682  0.87356029  0.57387057     0.10600
H1080       H  0.96604423  0.93456375  0.59575601     0.12600
C1081       C  0.71968746  0.15119155  0.48961697     0.18700
C1082       C  0.74027006  0.14827251  0.46815914    -0.19400
C1083       C  0.75036264  0.12138272  0.46041412    -0.11700
C1084       C  0.73933583  0.09691522  0.47346118     0.20900
C1085       C  0.71894504  0.09986624  0.49507023    -0.21000
C1086       C  0.70949479  0.12676796  0.50339201    -0.11900
C1087       C  0.74562681  0.06829659  0.46207232    -0.16000
C1088       C  0.77158898  0.06028355  0.45282060    -0.29900
C1089       C  0.70673925  0.17934232  0.49522799    -0.04100
C1090       C  0.69924527  0.18790442  0.52140204    -0.40700
H1091       H  0.74808659  0.16678628  0.45699009     0.12100
H1092       H  0.76553681  0.11963554  0.44315447     0.11700
H1093       H  0.70978461  0.08125851  0.50501845     0.11200
H1094       H  0.69309332  0.12835351  0.51952135     0.11400
H1095       H  0.72789693  0.05346668  0.46057767     0.14100
H1096       H  0.78999314  0.07389649  0.45622653     0.12900
H1097       H  0.70302918  0.19329288  0.47727031     0.10600
H1098       H  0.70511694  0.17520904  0.53970107     0.12600
C1099       C  0.14348877  0.50134435  0.70802717     0.18700
C1100       C  0.11513673  0.50953159  0.70316092    -0.19400
C1101       C  0.09276971  0.49656092  0.71796811    -0.11700
C1102       C  0.09848213  0.47459562  0.73724857     0.20900
C1103       C  0.12689330  0.46693472  0.74261905    -0.21000
C1104       C  0.14927982  0.48047898  0.72845523    -0.11900
C1105       C  0.07528295  0.45686506  0.74898974    -0.16000
C1106       C  0.04992015  0.46719193  0.75744485    -0.29900
C1107       C  0.16632140  0.51200022  0.68919380    -0.04100
C1108       C  0.19254334  0.51840510  0.69865192    -0.40700
H1109       H  0.11027240  0.52539145  0.68728412     0.12100
H1110       H  0.07099947  0.50246614  0.71304940     0.11700
H1111       H  0.13169680  0.44982695  0.75716930     0.11200
H1112       H  0.17094663  0.47341726  0.73219041     0.11400
H1113       H  0.07939875  0.43424292  0.75095737     0.14100
H1114       H  0.04622476  0.48993138  0.75819780     0.12900
H1115       H  0.16143134  0.51447517  0.66679646     0.10600
H1116       H  0.19696566  0.51853042  0.72127007     0.12600
C1117       C  0.81145913  0.19560173  0.84583125     0.18700
C1118       C  0.80022536  0.22310216  0.84325620    -0.19400
C1119       C  0.81837383  0.24647084  0.83958997    -0.11700
C1120       C  0.84807724  0.24255361  0.83782058     0.20900
C1121       C  0.85918465  0.21497704  0.83990208    -0.21000
C1122       C  0.84113396  0.19176214  0.84416924    -0.11900
C1123       C  0.86795025  0.26613395  0.83120223    -0.16000
C1124       C  0.86354388  0.29356867  0.83813395    -0.29900
C1125       C  0.79189220  0.17102560  0.84882359    -0.04100
C1126       C  0.79796916  0.14868493  0.86546782    -0.40700
H1127       H  0.77736750  0.22647656  0.84408210     0.12100
H1128       H  0.80908501  0.26734803  0.83719194     0.11700
H1129       H  0.88194930  0.21136060  0.83802369     0.11200
H1130       H  0.85033139  0.17072485  0.84533221     0.11400
H1131       H  0.88759588  0.26037367  0.82031855     0.14100
H1132       H  0.84526807  0.29969987  0.85092695     0.12900
H1133       H  0.77128794  0.17197264  0.83827108     0.10600
H1134       H  0.81703277  0.14888100  0.87856080     0.12600
C1135       C  0.91648253  0.56602277  0.94512300     0.18700
C1136       C  0.92033940  0.53859933  0.95598162    -0.19400
C1137       C  0.92284977  0.51538256  0.93758827    -0.11700
C1138       C  0.92217771  0.51952652  0.90808243     0.20900
C1139       C  0.91879651  0.54702783  0.89733208    -0.21000
C1140       C  0.91568764  0.57004526  0.91564360    -0.11900
C1141       C  0.92756172  0.49628402  0.88779434    -0.16000
C1142       C  0.92032383  0.46897795  0.89212354    -0.29900
C1143       C  0.91378619  0.59044783  0.96461318    -0.04100
C1144       C  0.89438063  0.61082188  0.95994914    -0.40700
H1145       H  0.92123732  0.53516918  0.97867335     0.12100
H1146       H  0.92622676  0.49446691  0.94641275     0.11700
H1147       H  0.91870994  0.55072231  0.87465244     0.11200
H1148       H  0.91331708  0.59109005  0.90676279     0.11400
H1149       H  0.93742521  0.50229593  0.86779338     0.14100
H1150       H  0.90845165  0.46273588  0.91089988     0.12900
H1151       H  0.92674373  0.59094114  0.98371514     0.10600
H1152       H  0.87950056  0.60866187  0.94239903     0.12600
C1153       C  0.75448897  0.32264839  0.66930418     0.18700
C1154       C  0.77958341  0.30633598  0.66968567    -0.19400
C1155       C  0.80371324  0.31546977  0.68453949    -0.11700
C1156       C  0.80329946  0.34121075  0.69969746     0.20900
C1157       C  0.77808880  0.35731899  0.69976287    -0.21000
C1158       C  0.75392074  0.34819705  0.68485404    -0.11900
C1159       C  0.82890612  0.35262062  0.71459228    -0.16000
C1160       C  0.85153851  0.33670827  0.72213905    -0.29900
C1161       C  0.73051358  0.31285567  0.65090391    -0.04100
C1162       C  0.70554738  0.32667074  0.64721225    -0.40700
H1163       H  0.78081901  0.28668267  0.65779125     0.12100
H1164       H  0.82278529  0.30264789  0.68322490     0.11700
H1165       H  0.77716558  0.37726181  0.71118992     0.11200
H1166       H  0.73526589  0.36162144  0.68529485     0.11400
H1167       H  0.82871581  0.37497850  0.72028827     0.14100
H1168       H  0.85153250  0.31401819  0.71832708     0.12900
H1169       H  0.73438411  0.29379277  0.63847318     0.10600
H1170       H  0.70061486  0.34562821  0.65924986     0.12600
C1171       C  0.05700038  0.42287976  0.94352288     0.18700
C1172       C  0.06485362  0.40272372  0.96399824    -0.19400
C1173       C  0.08054210  0.41057358  0.98797463    -0.11700
C1174       C  0.08864552  0.43901150  0.99227774     0.20900
C1175       C  0.08033040  0.45932228  0.97216344    -0.21000
C1176       C  0.06455730  0.45147454  0.94814852    -0.11900
C1177       C  0.10744572  0.44782651  0.01622636    -0.16000
C1178       C  0.11025832  0.43283759  0.04038373    -0.29900
C1179       C  0.04136669  0.41272213  0.91781899    -0.04100
C1180       C  0.03458564  0.42883031  0.89515717    -0.40700
H1181       H  0.05936451  0.38056817  0.96113981     0.12100
H1182       H  0.08707396  0.39404835  0.00244986     0.11700
H1183       H  0.08630273  0.48136699  0.97491045     0.11200
H1184       H  0.05869752  0.46794213  0.93337719     0.11400
H1185       H  0.11964283  0.46728044  0.01366911     0.14100
H1186       H  0.09713713  0.41420409  0.04394086     0.12900
H1187       H  0.03523082  0.39047428  0.91752863     0.10600
H1188       H  0.03995577  0.45117171  0.89459721     0.12600
C1189       C  0.05623869  0.56308612  0.09813787     0.18700
C1190       C  0.03372021  0.56850481  0.11713690    -0.19400
C1191       C  0.00940673  0.58349741  0.10851329    -0.11700
C1192       C  0.00697492  0.59332843  0.08045413     0.20900
C1193       C  0.02930934  0.58756694  0.06138630    -0.21000
C1194       C  0.05353811  0.57259216  0.06996566    -0.11900
C1195       C  0.98263713  0.61092359  0.07019875    -0.16000
C1196       C  0.95845339  0.61672905  0.08480304    -0.29900
C1197       C  0.08168807  0.54714520  0.10859598    -0.04100
C1198       C  0.10595245  0.54328153  0.09363854    -0.40700
H1199       H  0.03505882  0.56135246  0.13891919     0.12100
H1200       H  0.99299797  0.58765702  0.12408559     0.11700
H1201       H  0.02810732  0.59484400  0.03963122     0.11200
H1202       H  0.06978951  0.56857634  0.05422313     0.11400
H1203       H  0.98532688  0.62036774  0.04934916     0.14100
H1204       H  0.95455330  0.60734838  0.10541113     0.12900
H1205       H  0.08023803  0.53792913  0.12966806     0.10600
H1206       H  0.10830341  0.55200093  0.07254186     0.12600
C1207       C  0.39827832  0.52177194  0.25293040     0.18700
C1208       C  0.37031610  0.53011069  0.25953110    -0.19400
C1209       C  0.34700968  0.51545112  0.24818824    -0.11700
C1210       C  0.35140784  0.49275468  0.22932659     0.20900
C1211       C  0.37938642  0.48392132  0.22338988    -0.21000
C1212       C  0.40267668  0.49805499  0.23540299    -0.11900
C1213       C  0.32769216  0.48155227  0.21193576    -0.16000
C1214       C  0.30089828  0.47821060  0.22159658    -0.29900
C1215       C  0.42229109  0.54038136  0.26101262    -0.04100
C1216       C  0.44800564  0.53051814  0.26879749    -0.40700
H1217       H  0.36653973  0.54861391  0.27267353     0.12100
H1218       H  0.32567503  0.52315151  0.25254773     0.11700
H1219       H  0.38322234  0.46679022  0.20851996     0.11200
H1220       H  0.42406515  0.49164402  0.22946516     0.11400
H1221       H  0.33222304  0.47717082  0.18972054     0.14100
H1222       H  0.29611601  0.48013159  0.24406202     0.12900
H1223       H  0.41874908  0.56317034  0.26008266     0.10600
H1224       H  0.45130000  0.50798358  0.27229782     0.12600
C1225       C  0.27786271  0.65473040  0.01657066     0.18700
C1226       C  0.27338239  0.64978412  0.04553202    -0.19400
C1227       C  0.25802576  0.62612217  0.05464972    -0.11700
C1228       C  0.24725227  0.60631398  0.03499937     0.20900
C1229       C  0.25024092  0.61199639  0.00593340    -0.21000
C1230       C  0.26556190  0.63592318  0.99672768    -0.11900
C1231       C  0.23450318  0.57903408  0.04483400    -0.16000
C1232       C  0.24552450  0.56577018  0.06754580    -0.29900
C1233       C  0.29695031  0.67863661  0.00835009    -0.04100
C1234       C  0.29639754  0.69151892  0.98292503    -0.40700
H1235       H  0.28223198  0.66407663  0.06125801     0.12100
H1236       H  0.25513304  0.62303444  0.07722148     0.11700
H1237       H  0.24191714  0.59722458  0.99038024     0.11200
H1238       H  0.26875484  0.63885193  0.97420139     0.11400
H1239       H  0.21720292  0.56938117  0.03290956     0.14100
H1240       H  0.26407844  0.57505519  0.07783126     0.12900
H1241       H  0.31157603  0.68654984  0.02441277     0.10600
H1242       H  0.28074188  0.68519638  0.96718433     0.12600
C1243       C  0.21546691  0.41390679  0.52092865     0.18700
C1244       C  0.18684086  0.40694115  0.52618150    -0.19400
C1245       C  0.17499184  0.38200059  0.51558782    -0.11700
C1246       C  0.19131305  0.36303441  0.49933799     0.20900
C1247       C  0.21979773  0.37032776  0.49290394    -0.21000
C1248       C  0.23180354  0.39561131  0.50363784    -0.11900
C1249       C  0.17765637  0.33546391  0.49170830    -0.16000
C1250       C  0.18802889  0.31535614  0.47399930    -0.29900
C1251       C  0.22723667  0.43898449  0.53634988    -0.04100
C1252       C  0.25274738  0.45165086  0.53196704    -0.40700
H1253       H  0.17364596  0.42051727  0.53933853     0.12100
H1254       H  0.15299856  0.37715571  0.52085779     0.11700
H1255       H  0.23313868  0.35622834  0.48056561     0.11200
H1256       H  0.25402260  0.40009602  0.49930048     0.11400
H1257       H  0.15716109  0.33151106  0.50179776     0.14100
H1258       H  0.20793226  0.31860668  0.46269143     0.12900
H1259       H  0.21369828  0.44737861  0.55312020     0.10600
H1260       H  0.26653419  0.44486357  0.51474794     0.12600
C1261       C  0.00130713  0.30128259  0.64319618     0.18700
C1262       C  0.01338969  0.31841206  0.62207666    -0.19400
C1263       C  0.02382048  0.30662544  0.59709368    -0.11700
C1264       C  0.02234010  0.27733152  0.59224983     0.20900
C1265       C  0.00898135  0.26000999  0.61268498    -0.21000
C1266       C  0.99852325  0.27192384  0.63804989    -0.11900
C1267       C  0.03762245  0.26625920  0.56691668    -0.16000
C1268       C  0.03422369  0.24047416  0.55496277    -0.29900
C1269       C  0.99414880  0.31532011  0.67055413    -0.04100
C1270       C  0.98058048  0.30348922  0.69281108    -0.40700
H1271       H  0.01568227  0.34107637  0.62526654     0.12100
H1272       H  0.03390904  0.32050324  0.58175617     0.11700
H1273       H  0.00773912  0.23727207  0.60978961     0.11200
H1274       H  0.98938980  0.25797321  0.65381558     0.11400
H1275       H  0.05295970  0.28075231  0.55744346     0.14100
H1276       H  0.01840995  0.22572911  0.56307266     0.12900
H1277       H  0.00072506  0.33738051  0.67242170     0.10600
H1278       H  0.97215094  0.28208989  0.69164864     0.12600
C1279       C  0.99583451  0.07646570  0.41085928     0.18700
C1280       C  0.97659572  0.08203652  0.38872559    -0.19400
C1281       C  0.95007872  0.06827485  0.38738050    -0.11700
C1282       C  0.94216734  0.04817980  0.40807813     0.20900
C1283       C  0.96153424  0.04238646  0.43004608    -0.21000
C1284       C  0.98807169  0.05611176  0.43136121    -0.11900
C1285       C  0.91395340  0.03317407  0.40787615    -0.16000
C1286       C  0.89715907  0.03093289  0.38475170    -0.29900
C1287       C  0.02291624  0.09334582  0.41246924    -0.04100
C1288       C  0.03739002  0.09745288  0.43679173    -0.40700
H1289       H  0.98178969  0.09769553  0.37273241     0.12100
H1290       H  0.93572434  0.07406848  0.37043435     0.11700
H1291       H  0.95616637  0.02701453  0.44626127     0.11200
H1292       H  0.00234772  0.05053064  0.44845154     0.11400
H1293       H  0.90735076  0.02253971  0.42724206     0.14100
H1294       H  0.90409921  0.04002698  0.36479684     0.12900
H1295       H  0.02904610  0.10575422  0.39401473     0.10600
H1296       H  0.02992020  0.08758055  0.45617434     0.12600
C1297       C  0.14179945  0.29456915  0.29858359     0.18700
C1298       C  0.12170038  0.30926782  0.28218935    -0.19400
C1299       C  0.13051865  0.32635824  0.25955106    -0.11700
C1300       C  0.15968329  0.32871508  0.25272866     0.20900
C1301       C  0.17958141  0.31291010  0.26828651    -0.21000
C1302       C  0.17077531  0.29578264  0.29076492    -0.11900
C1303       C  0.17053171  0.34921875  0.23144400    -0.16000
C1304       C  0.15502207  0.35954226  0.20976281    -0.29900
C1305       C  0.13208655  0.27885816  0.32410966    -0.04100
C1306       C  0.14903894  0.27510011  0.34679848    -0.40700
H1307       H  0.09924100  0.30844771  0.28763627     0.12100
H1308       H  0.11459798  0.33858457  0.24835131     0.11700
H1309       H  0.20213511  0.31418082  0.26331014     0.11200
H1310       H  0.18679265  0.28378623  0.30208815     0.11400
H1311       H  0.19252078  0.35619720  0.23390018     0.14100
H1312       H  0.13367060  0.35158165  0.20569105     0.12900
H1313       H  0.11012653  0.27142941  0.32478253     0.10600
H1314       H  0.17067432  0.28334345  0.34670561     0.12600
C1315       C  0.09916554  0.07357785  0.58306554     0.18700
C1316       C  0.11923100  0.05169999  0.58624143    -0.19400
C1317       C  0.11184981  0.02652618  0.60013224    -0.11700
C1318       C  0.08415762  0.02290731  0.61117206     0.20900
C1319       C  0.06452061  0.04520900  0.60885695    -0.21000
C1320       C  0.07189577  0.07029476  0.59511243    -0.11900
C1321       C  0.07481128  0.99691104  0.62617406    -0.16000
C1322       C  0.08809944  0.97162496  0.62478307    -0.29900
C1323       C  0.10707225  0.09908886  0.56643173    -0.04100
C1324       C  0.08755013  0.11522392  0.55314261    -0.40700
H1325       H  0.14052341  0.05389424  0.57751265     0.12100
H1326       H  0.12793424  0.01024485  0.60230018     0.11700
H1327       H  0.04323431  0.04318950  0.61765175     0.11200
H1328       H  0.05614846  0.08702250  0.59421468     0.11400
H1329       H  0.05547477  0.99873630  0.63882167     0.14100
H1330       H  0.10729725  0.96885225  0.61221755     0.12900
H1331       H  0.12964341  0.10314804  0.56289739     0.10600
H1332       H  0.06498719  0.11042647  0.55501786     0.12600
C1333       C  0.40310939  0.94610700  0.04841039     0.18700
C1334       C  0.38181602  0.96521520  0.05713506    -0.19400
C1335       C  0.38879462  0.98950686  0.07276275    -0.11700
C1336       C  0.41738485  0.99522494  0.07977984     0.20900
C1337       C  0.43874579  0.97680154  0.06996007    -0.21000
C1338       C  0.43181558  0.95266120  0.05430261    -0.11900
C1339       C  0.42599455  0.01843078  0.09924344    -0.16000
C1340       C  0.40947693  0.04049660  0.10727596    -0.29900
C1341       C  0.39436771  0.91966912  0.03351617    -0.04100
C1342       C  0.41186928  0.89748662  0.02886903    -0.40700
H1343       H  0.35957034  0.96090611  0.05256507     0.12100
H1344       H  0.37165588  0.00298871  0.08012525     0.11700
H1345       H  0.46097938  0.98082487  0.07487458     0.11200
H1346       H  0.44915961  0.93935861  0.04717984     0.11400
H1347       H  0.44739101  0.01674399  0.10799213     0.14100
H1348       H  0.38853691  0.04377854  0.09808434     0.12900
H1349       H  0.37235261  0.91827769  0.02637058     0.10600
H1350       H  0.43392227  0.89792734  0.03569358     0.12600
C1351       C  0.30516286  0.14724843  0.31348853     0.18700
C1352       C  0.27887434  0.13314631  0.31057661    -0.19400
C1353       C  0.25498477  0.14155929  0.32649100    -0.11700
C1354       C  0.25702399  0.16414066  0.34602047     0.20900
C1355       C  0.28352378  0.17774564  0.34928342    -0.21000
C1356       C  0.30729747  0.16938115  0.33339657    -0.11900
C1357       C  0.23242599  0.17464620  0.36330538    -0.16000
C1358       C  0.20728266  0.16098676  0.36674890    -0.29900
C1359       C  0.33007263  0.13795167  0.29608933    -0.04100
C1360       C  0.35226218  0.15509208  0.28964841    -0.40700
H1361       H  0.27669276  0.11582272  0.29560059     0.12100
H1362       H  0.23505467  0.13055144  0.32301690     0.11700
H1363       H  0.28592819  0.19495038  0.36436163     0.11200
H1364       H  0.32736655  0.18010153  0.33712594     0.11400
H1365       H  0.23575812  0.19439274  0.37478204     0.14100
H1366       H  0.20348928  0.14076637  0.35645046     0.12900
H1367       H  0.32963588  0.11652750  0.28752910     0.10600
H1368       H  0.35208077  0.17711807  0.29637085     0.12600
C1369       C  0.34290957  0.26236789  0.17955767     0.18700
C1370       C  0.34035215  0.28623930  0.19726830    -0.19400
C1371       C  0.32380059  0.30958864  0.18914638    -0.11700
C1372       C  0.30933478  0.30961251  0.16296460     0.20900
C1373       C  0.31219963  0.28593455  0.14511839    -0.21000
C1374       C  0.32874036  0.26261521  0.15321343    -0.11900
C1375       C  0.29207256  0.33421786  0.15294601    -0.16000
C1376       C  0.28081139  0.35389333  0.17042093    -0.29900
C1377       C  0.36154957  0.23842138  0.18878888    -0.04100
C1378       C  0.36160824  0.21250942  0.17657474    -0.40700
H1379       H  0.35138250  0.28692689  0.21744345     0.12100
H1380       H  0.32302190  0.32772986  0.20318701     0.11700
H1381       H  0.30166122  0.28551035  0.12468104     0.11200
H1382       H  0.33072285  0.24526717  0.13835346     0.11400
H1383       H  0.28770254  0.33563102  0.13035668     0.14100
H1384       H  0.28352764  0.35194511  0.19317550     0.12900
H1385       H  0.37592364  0.24240511  0.20643730     0.10600
H1386       H  0.34698042  0.20761881  0.15947319     0.12600
C1387       C  0.57336334  0.07982010  0.99813987     0.18700
C1388       C  0.56109459  0.05868642  0.01520137    -0.19400
C1389       C  0.54578206  0.06574925  0.03965401    -0.11700
C1390       C  0.54281514  0.09428096  0.04800375     0.20900
C1391       C  0.55422085  0.11551213  0.03041184    -0.21000
C1392       C  0.56946270  0.10842535  0.00579971    -0.11900
C1393       C  0.52823860  0.10272892  0.07483855    -0.16000
C1394       C  0.52407778  0.08497438  0.09687421    -0.29900
C1395       C  0.59218561  0.07081307  0.97433501    -0.04100
C1396       C  0.60043257  0.08745242  0.95251315    -0.40700
H1397       H  0.56368277  0.03648724  0.00976961     0.12100
H1398       H  0.53645115  0.04868986  0.05182950     0.11700
H1399       H  0.55206564  0.13766837  0.03618069     0.11200
H1400       H  0.57900421  0.12533867  0.99355228     0.11400
H1401       H  0.52148794  0.12470322  0.07685031     0.14100
H1402       H  0.53105735  0.06308704  0.09568900     0.12900
H1403       H  0.60028757  0.04923191  0.97537622     0.10600
H1404       H  0.59171655  0.10862777  0.95008826     0.12600
C1405       C  0.49941300  0.21665130  0.35300134     0.18700
C1406       C  0.49481696  0.24374100  0.36451601    -0.19400
C1407       C  0.50965893  0.25255868  0.38890784    -0.11700
C1408       C  0.52902861  0.23410428  0.40251813     0.20900
C1409       C  0.53263191  0.20668966  0.39143345    -0.21000
C1410       C  0.51804303  0.19804386  0.36713385    -0.11900
C1411       C  0.54679262  0.24223683  0.42755944    -0.16000
C1412       C  0.54476840  0.26679569  0.44212972    -0.29900
C1413       C  0.48497186  0.20760736  0.32629268    -0.04100
C1414       C  0.49924681  0.19187427  0.30716729    -0.40700
H1415       H  0.48036697  0.25835498  0.35417173     0.12100
H1416       H  0.50616518  0.27389885  0.39652782     0.11700
H1417       H  0.54708572  0.19185517  0.40148124     0.11200
H1418       H  0.52137724  0.17665134  0.35939837     0.11400
H1419       H  0.56270935  0.22690599  0.43432969     0.14100
H1420       H  0.52869940  0.28237311  0.43666038     0.12900
H1421       H  0.46269372  0.21297627  0.32290353     0.10600
H1422       H  0.52175225  0.18766912  0.31091240     0.12600
C1423       C  0.63158009  0.97881171  0.28555174     0.18700
C1424       C  0.62617273  0.98064284  0.25631375    -0.19400
C1425       C  0.60190040  0.99502345  0.24633014    -0.11700
C1426       C  0.58259986  0.00755042  0.26560028     0.20900
C1427       C  0.58711941  0.00384667  0.29473447    -0.21000
C1428       C  0.61104654  0.98941511  0.30460264    -0.11900
C1429       C  0.55918060  0.02695148  0.25691581    -0.16000
C1430       C  0.54778381  0.02862990  0.23076301    -0.29900
C1431       C  0.65939753  0.96776702  0.29613924    -0.04100
C1432       C  0.67169583  0.97977516  0.31896386    -0.40700
H1433       H  0.64148137  0.97231842  0.24121486     0.12100
H1434       H  0.59920896  0.99751181  0.22369584     0.11700
H1435       H  0.57245335  0.01291185  0.31005471     0.11200
H1436       H  0.61383904  0.98731103  0.32729193     0.11400
H1437       H  0.55087904  0.04093029  0.27333928     0.14100
H1438       H  0.55419784  0.01390976  0.21422933     0.12900
H1439       H  0.67046948  0.95126431  0.28437717     0.10600
H1440       H  0.66121954  0.99776705  0.32897700     0.12600
loop_ 
_geom_bond_atom_site_label_1 
_geom_bond_atom_site_label_2 
_geom_bond_distance 
_geom_bond_site_symmetry_2 
_ccdc_geom_bond_type 
Zr1           O2   2.438       .  S
Zr1           O3   2.439       .  S
Zr1           O4   2.438       .  S
Zr1           O7   2.467       .  S
Zr1           O9   2.385       .  S
Zr1          O10   2.379       .  S
Zr1          O11   2.417       .  S
Zr1          O12   2.405       .  S
O2           H58   0.990       .  S
O2           H66   0.990       .  S
O3           C23   1.285       .  A
O4           C25   1.286       .  A
O5          Zr15   2.405       .  S
O5           C24   1.280       .  A
O6          Zr14   2.437       .  S
O6           C25   1.286       .  A
O7           C24   1.291       .  A
O8          Zr16   2.427       .  S
O8           C23   1.283       .  A
O9          Zr14   2.394       .  S
O9          Zr16   2.371       .  S
O10         Zr15   2.392       .  S
O10         Zr16   2.374       .  S
O10          H45   0.966       .  S
O11         Zr14   2.405       .  S
O11         Zr31   2.391       .  S
O11          H48   0.965       .  S
O12         Zr15   2.391       .  S
O12         Zr31   2.402       .  S
Zr13         O38   2.444       .  S
Zr13         O32   2.429       .  S
Zr13         O40   2.438       .  S
Zr13         O28   2.403       .  S
Zr13         O19   2.395       .  S
Zr13         O20   2.409       .  S
Zr13         O21   2.382       .  S
Zr13         O22   2.375       .  S
Zr14         O33   2.436       .  S
Zr14         O26   2.435       .  S
Zr14         O27   2.456       .  S
Zr14         O20   2.400       .  S
Zr14         O21   2.383       .  S
Zr15         O17   2.436       .  S
Zr15         O39   2.436       .  S
Zr15         O41   2.431       .  S
Zr15         O19   2.382       .  S
Zr15         O22   2.382       .  S
Zr16         O42   2.437       .  S
Zr16         O43   2.436       .  S
Zr16         O18   2.437       .  S
Zr16         O19   2.401       .  S
Zr16         O20   2.393       .  S
O17          H54   0.990       .  S
O18          H49   0.990       .  S
O18          H63   0.990       .  S
O20          H46   0.966       .  S
O21         Zr31   2.370       .  S
O22         Zr31   2.376       .  S
O22          H47   0.966       .  S
C23        C1360   1.481       .  S
C24        C1414   1.477       .  S
C25        C1378   1.480       .  S
O26          H62   0.990       .  S
O27          C29   1.288       .  A
O28          C29   1.281       .  A
C29        C1340   1.480       .  S
O30         Zr31   2.434       .  S
O30          H59   0.990       .  S
Zr31         O34   2.436       .  S
Zr31         O35   2.438       .  S
Zr31         O36   2.434       .  S
O32          C37   1.283       .  A
O33          H50   0.990       .  S
O33          H65   0.990       .  S
O34          H51   0.990       .  S
O35          H55   0.990       .  S
O35          H64   0.990       .  S
O36          C37   1.285       .  A
C37        C1394   1.478       .  S
O38          H57   0.990       .  S
O38          H61   0.990       .  S
O39          H53   0.990       .  S
O39          H60   0.990       .  S
O40          C44   1.284       .  A
O41          C44   1.286       .  A
O42          H52   0.990       .  S
O43          H56   0.990       .  S
C44        C1430   1.483       .  S
Zr67         O68   2.438       .  S
Zr67         O69   2.417       .  S
Zr67         O70   2.416       .  S
Zr67         O73   2.443       .  S
Zr67         O75   2.382       .  S
Zr67         O76   2.374       .  S
Zr67         O77   2.410       .  S
Zr67         O78   2.402       .  S
O68         H124   0.991       .  S
O68         H132   0.990       .  S
O69          C89   1.280       .  A
O70          C91   1.280       .  A
O71         Zr81   2.426       .  S
O71          C90   1.285       .  A
O72         Zr80   2.468       .  S
O72          C91   1.291       .  A
O73          C90   1.285       .  A
O74         Zr82   2.422       .  S
O74          C89   1.282       .  A
O75         Zr80   2.394       .  S
O75         Zr82   2.377       .  S
O76         Zr81   2.385       .  S
O76         Zr82   2.367       .  S
O76         H111   0.966       .  S
O77         Zr80   2.401       .  S
O77         Zr97   2.394       .  S
O77         H114   0.966       .  S
O78         Zr81   2.388       .  S
O78         Zr97   2.407       .  S
Zr79        O104   2.443       .  S
Zr79         O98   2.414       .  S
Zr79        O106   2.458       .  S
Zr79         O94   2.430       .  S
Zr79         O85   2.396       .  S
Zr79         O86   2.408       .  S
Zr79         O87   2.390       .  S
Zr79         O88   2.380       .  S
Zr80         O99   2.436       .  S
Zr80         O92   2.434       .  S
Zr80         O93   2.456       .  S
Zr80         O86   2.410       .  S
Zr80         O87   2.391       .  S
Zr81         O83   2.435       .  S
Zr81        O105   2.436       .  S
Zr81        O107   2.418       .  S
Zr81         O85   2.395       .  S
Zr81         O88   2.384       .  S
Zr82        O108   2.436       .  S
Zr82        O109   2.435       .  S
Zr82         O84   2.436       .  S
Zr82         O85   2.398       .  S
Zr82         O86   2.392       .  S
O83         H120   0.990       .  S
O84         H115   0.990       .  S
O84         H129   0.990       .  S
O86         H112   0.966       .  S
O87         Zr97   2.373       .  S
O88         Zr97   2.373       .  S
O88         H113   0.965       .  S
C89        C1324   1.470       .  S
C90        C1268   1.487       .  S
C91        C1288   1.477       .  S
O92         H128   0.990       .  S
O93          C95   1.289       .  A
O94          C95   1.286       .  A
C95        C1358   1.487       .  S
O96         Zr97   2.435       .  S
O96         H125   0.990       .  S
Zr97        O100   2.435       .  S
Zr97        O101   2.440       .  S
Zr97        O102   2.437       .  S
O98         C103   1.281       .  A
O99         H116   0.990       .  S
O99         H131   0.990       .  S
O100        H117   0.990       .  S
O101        H121   0.990       .  S
O101        H130   0.989       .  S
O102        C103   1.285       .  A
C103       C1306   1.472       .  S
O104        H123   0.990       .  S
O104        H127   0.990       .  S
O105        H119   0.990       .  S
O105        H126   0.990       .  S
O106        C110   1.288       .  A
O107        C110   1.284       .  A
O108        H118   0.990       .  S
O109        H122   0.990       .  S
C110       C1250   1.491       .  S
Zr133       O134   2.439       .  S
Zr133       O135   2.430       .  S
Zr133       O136   2.426       .  S
Zr133       O139   2.443       .  S
Zr133       O141   2.384       .  S
Zr133       O142   2.376       .  S
Zr133       O143   2.412       .  S
Zr133       O144   2.403       .  S
O134        H190   0.991       .  S
O134        H198   0.990       .  S
O135        C155   1.283       .  A
O136        C157   1.284       .  A
O137       Zr147   2.420       .  S
O137        C156   1.283       .  A
O138       Zr146   2.441       .  S
O138        C157   1.285       .  A
O139        C156   1.285       .  A
O140       Zr148   2.437       .  S
O140        C155   1.286       .  A
O141       Zr146   2.392       .  S
O141       Zr148   2.377       .  S
O142       Zr147   2.382       .  S
O142       Zr148   2.367       .  S
O142        H177   0.966       .  S
O143       Zr146   2.399       .  S
O143       Zr163   2.397       .  S
O143        H180   0.966       .  S
O144       Zr147   2.389       .  S
O144       Zr163   2.404       .  S
Zr145       O170   2.439       .  S
Zr145       O164   2.425       .  S
Zr145       O172   2.465       .  S
Zr145       O160   2.438       .  S
Zr145       O151   2.405       .  S
Zr145       O152   2.414       .  S
Zr145       O153   2.388       .  S
Zr145       O154   2.381       .  S
Zr146       O165   2.436       .  S
Zr146       O158   2.437       .  S
Zr146       O159   2.437       .  S
Zr146       O152   2.401       .  S
Zr146       O153   2.385       .  S
Zr147       O149   2.436       .  S
Zr147       O171   2.437       .  S
Zr147       O173   2.410       .  S
Zr147       O151   2.387       .  S
Zr147       O154   2.388       .  S
Zr148       O174   2.435       .  S
Zr148       O175   2.435       .  S
Zr148       O150   2.434       .  S
Zr148       O151   2.403       .  S
Zr148       O152   2.394       .  S
O149        H186   0.990       .  S
O150        H181   0.990       .  S
O150        H195   0.990       .  S
O152        H178   0.966       .  S
O153       Zr163   2.370       .  S
O154       Zr163   2.370       .  S
O154        H179   0.965       .  S
C155       C1376   1.481       .  S
C156       C1214   1.472       .  S
C157       C1304   1.479       .  S
O158        H194   0.990       .  S
O159        C161   1.286       .  A
O160        C161   1.287       .  A
C161       C1178   1.481       .  S
O162       Zr163   2.435       .  S
O162        H191   0.990       .  S
Zr163       O166   2.437       .  S
Zr163       O167   2.441       .  S
Zr163       O168   2.440       .  S
O164        C169   1.283       .  A
O165        H182   0.990       .  S
O165        H197   0.990       .  S
O166        H183   0.990       .  S
O167        H187   0.990       .  S
O167        H196   0.990       .  S
O168        C169   1.286       .  A
C169       C1198   1.479       .  S
O170        H189   0.990       .  S
O170        H193   0.990       .  S
O171        H185   0.990       .  S
O171        H192   0.990       .  S
O172        C176   1.290       .  A
O173        C176   1.281       .  A
O174        H184   0.990       .  S
O175        H188   0.990       .  S
C176       C1232   1.476       .  S
Zr199       O200   2.439       .  S
Zr199       O201   2.433   1_655  S
Zr199       O202   2.409       .  S
Zr199       O205   2.437   1_655  S
Zr199       O207   2.381       .  S
Zr199       O208   2.377   1_655  S
Zr199       O209   2.404       .  S
Zr199       O210   2.399       .  S
O200        H256   0.990       .  S
O200        H264   0.990       .  S
O201        C221   1.283       .  A
O202        C223   1.282       .  A
O203       Zr213   2.425   1_455  S
O203        C222   1.284       .  A
O204       Zr212   2.443       .  S
O204        C223   1.286       .  A
O205        C222   1.284       .  A
O206       Zr214   2.436   1_455  S
O206        C221   1.285       .  A
O207       Zr212   2.392       .  S
O207       Zr214   2.369       .  S
O208       Zr213   2.389   1_455  S
O208       Zr214   2.370   1_455  S
O208        H243   0.966       .  S
O209       Zr212   2.401       .  S
O209       Zr229   2.390       .  S
O209        H246   0.966       .  S
O210       Zr213   2.394       .  S
O210       Zr229   2.405       .  S
Zr211       O236   2.441       .  S
Zr211       O230   2.425       .  S
Zr211       O238   2.437       .  S
Zr211       O226   2.414       .  S
Zr211       O217   2.403       .  S
Zr211       O218   2.408       .  S
Zr211       O219   2.382       .  S
Zr211       O220   2.379       .  S
Zr212       O231   2.437       .  S
Zr212       O224   2.434       .  S
Zr212       O225   2.451       .  S
Zr212       O218   2.403       .  S
Zr212       O219   2.384       .  S
Zr213       O215   2.435       .  S
Zr213       O237   2.439   1_655  S
Zr213       O239   2.429       .  S
Zr213       O217   2.391       .  S
Zr213       O220   2.388       .  S
Zr214       O240   2.436   1_655  S
Zr214       O241   2.435   1_655  S
Zr214       O216   2.436       .  S
Zr214       O217   2.406       .  S
Zr214       O218   2.396       .  S
O215        H252   0.990   1_655  S
O216        H247   0.990   1_655  S
O216        H261   0.990       .  S
O218        H244   0.966       .  S
O219       Zr229   2.373       .  S
O220       Zr229   2.369       .  S
O220        H245   0.965       .  S
C221       C1180   1.483       .  S
C222       C1106   1.474       .  S
C223       C1142   1.475       .  S
O224        H260   0.990       .  S
O225        C227   1.288       .  A
O226        C227   1.283       .  A
C227       C1124   1.480       .  S
O228       Zr229   2.435       .  S
O228        H257   0.990       .  S
Zr229       O232   2.437       .  S
Zr229       O233   2.438       .  S
Zr229       O234   2.437       .  S
O230        C235   1.282       .  A
O231        H248   0.990       .  S
O231        H263   0.990       .  S
O232        H249   0.990       .  S
O233        H253   0.990       .  S
O233        H262   0.990       .  S
O234        C235   1.285       .  A
C235       C1160   1.479       .  S
O236        H255   0.990       .  S
O236        H259   0.990       .  S
O237        H251   0.990       .  S
O237        H258   0.990       .  S
O238        C242   1.284       .  A
O239        C242   1.285       .  A
O240        H250   0.990       .  S
O241        H254   0.990   1_455  S
C242       C1270   1.482       .  S
Zr265       O266   2.439       .  S
Zr265       O267   2.440       .  S
Zr265       O268   2.436       .  S
Zr265       O271   2.460       .  S
Zr265       O273   2.384       .  S
Zr265       O274   2.383       .  S
Zr265       O275   2.418       .  S
Zr265       O276   2.406       .  S
O266        H322   0.991       .  S
O266        H330   0.990       .  S
O267        C287   1.285       .  A
O268        C289   1.286       .  A
O269       Zr279   2.403       .  S
O269        C288   1.279       .  A
O270       Zr278   2.446       .  S
O270        C289   1.286       .  A
O271        C288   1.289       .  A
O272       Zr280   2.428       .  S
O272        C287   1.282       .  A
O273       Zr278   2.396       .  S
O273       Zr280   2.374       .  S
O274       Zr279   2.395       .  S
O274       Zr280   2.367       .  S
O274        H309   0.966       .  S
O275       Zr278   2.410       .  S
O275       Zr295   2.382       .  S
O275        H312   0.965       .  S
O276       Zr279   2.394       .  S
O276       Zr295   2.403       .  S
Zr277       O302   2.442       .  S
Zr277       O296   2.450   1_565  S
Zr277       O304   2.451   1_565  S
Zr277       O292   2.423       .  S
Zr277       O283   2.405       .  S
Zr277       O284   2.414       .  S
Zr277       O285   2.381       .  S
Zr277       O286   2.377   1_565  S
Zr278       O297   2.435       .  S
Zr278       O290   2.435       .  S
Zr278       O291   2.456       .  S
Zr278       O284   2.399       .  S
Zr278       O285   2.390       .  S
Zr279       O281   2.435   1_565  S
Zr279       O303   2.437       .  S
Zr279       O305   2.421   1_565  S
Zr279       O283   2.380       .  S
Zr279       O286   2.386   1_565  S
Zr280       O306   2.436       .  S
Zr280       O307   2.435       .  S
Zr280       O282   2.437       .  S
Zr280       O283   2.406       .  S
Zr280       O284   2.388       .  S
O281        H318   0.990       .  S
O282        H313   0.990       .  S
O282        H327   0.990       .  S
O284        H310   0.965       .  S
O285       Zr295   2.377       .  S
O286       Zr295   2.367   1_545  S
O286        H311   0.965       .  S
C287       C1034   1.482       .  S
C288       C1432   1.474       .  S
C289       C1054   1.476       .  S
O290        H326   0.990       .  S
O291        C293   1.289       .  A
O292        C293   1.285       .  A
C293       C1070   1.483       .  S
O294       Zr295   2.440       .  S
O294        H323   0.990   1_565  S
Zr295       O298   2.437       .  S
Zr295       O299   2.440   1_565  S
Zr295       O300   2.432   1_565  S
O296        C301   1.288       .  A
O297        H314   0.990       .  S
O297        H329   0.990       .  S
O298        H315   0.990       .  S
O299        H319   0.990       .  S
O299        H328   0.990       .  S
O300        C301   1.284       .  A
C301       C1286   1.486       .  S
O302        H321   0.991       .  S
O302        H325   0.990       .  S
O303        H317   0.990   1_565  S
O303        H324   0.990       .  S
O304        C308   1.287       .  A
O305        C308   1.284       .  A
O306        H316   0.990       .  S
O307        H320   0.990       .  S
C308       C1088   1.478       .  S
Zr331       O332   2.439       .  S
Zr331       O333   2.437       .  S
Zr331       O334   2.408       .  S
Zr331       O337   2.430       .  S
Zr331       O339   2.377       .  S
Zr331       O340   2.378       .  S
Zr331       O341   2.411       .  S
Zr331       O342   2.409       .  S
O332        H388   0.991       .  S
O332        H396   0.990       .  S
O333        C353   1.284       .  A
O334        C355   1.282       .  A
O335       Zr345   2.426   1_455  S
O335        C354   1.284       .  A
O336       Zr344   2.446       .  S
O336        C355   1.285       .  A
O337        C354   1.283       .  A
O338       Zr346   2.421       .  S
O338        C353   1.280       .  A
O339       Zr344   2.393       .  S
O339       Zr346   2.378       .  S
O340       Zr345   2.386   1_455  S
O340       Zr346   2.364       .  S
O340        H375   0.966       .  S
O341       Zr344   2.396       .  S
O341       Zr361   2.393       .  S
O341        H378   0.965       .  S
O342       Zr345   2.385   1_455  S
O342       Zr361   2.408       .  S
Zr343       O368   2.446       .  S
Zr343       O362   2.429   1_455  S
Zr343       O370   2.443   1_455  S
Zr343       O358   2.423       .  S
Zr343       O349   2.400       .  S
Zr343       O350   2.408       .  S
Zr343       O351   2.382       .  S
Zr343       O352   2.382   1_455  S
Zr344       O363   2.436       .  S
Zr344       O356   2.435       .  S
Zr344       O357   2.434       .  S
Zr344       O350   2.405       .  S
Zr344       O351   2.389       .  S
Zr345       O347   2.435       .  S
Zr345       O369   2.439       .  S
Zr345       O371   2.413       .  S
Zr345       O349   2.390   1_655  S
Zr345       O352   2.385       .  S
Zr346       O372   2.434       .  S
Zr346       O373   2.434       .  S
Zr346       O348   2.436       .  S
Zr346       O349   2.396       .  S
Zr346       O350   2.388       .  S
O347        H384   0.990       .  S
O348        H379   0.990       .  S
O348        H393   0.989       .  S
O350        H376   0.966       .  S
O351       Zr361   2.372       .  S
O352       Zr361   2.374   1_655  S
O352        H377   0.966       .  S
C353       C1016   1.472       .  S
C354        C964   1.478       .  S
C355        C998   1.478       .  S
O356        H392   0.990       .  S
O357        C359   1.284       .  A
O358        C359   1.285       .  A
C359       C1322   1.476       .  S
O360       Zr361   2.439       .  S
O360        H389   0.990       .  S
Zr361       O364   2.437       .  S
Zr361       O365   2.439   1_455  S
Zr361       O366   2.440   1_455  S
O362        C367   1.283       .  A
O363        H380   0.990       .  S
O363        H395   0.990       .  S
O364        H381   0.990       .  S
O365        H385   0.990       .  S
O365        H394   0.990       .  S
O366        C367   1.286       .  A
C367       C1072   1.482       .  S
O368        H387   0.990       .  S
O368        H391   0.990       .  S
O369        H383   0.990       .  S
O369        H390   0.990       .  S
O370        C374   1.285       .  A
O371        C374   1.283       .  A
O372        H382   0.990       .  S
O373        H386   0.990       .  S
C374        C982   1.482       .  S
Zr397       O398   2.439       .  S
Zr397       O399   2.415   1_556  S
Zr397       O400   2.423       .  S
Zr397       O403   2.434   1_556  S
Zr397       O405   2.380       .  S
Zr397       O406   2.380   1_556  S
Zr397       O407   2.402       .  S
Zr397       O408   2.395       .  S
O398        H454   0.990       .  S
O398        H462   0.990       .  S
O399        C419   1.280       .  A
O400        C421   1.284       .  A
O401       Zr411   2.437   1_554  S
O401        C420   1.287       .  A
O402       Zr410   2.456       .  S
O402        C421   1.288       .  A
O403        C420   1.285       .  A
O404       Zr412   2.431   1_554  S
O404        C419   1.284       .  A
O405       Zr410   2.390       .  S
O405       Zr412   2.371       .  S
O406       Zr411   2.394   1_554  S
O406       Zr412   2.371   1_554  S
O406        H441   0.966       .  S
O407       Zr410   2.408       .  S
O407       Zr427   2.389       .  S
O407        H444   0.966       .  S
O408       Zr411   2.394       .  S
O408       Zr427   2.396       .  S
Zr409       O434   2.445       .  S
Zr409       O428   2.429       .  S
Zr409       O436   2.429       .  S
Zr409       O424   2.406       .  S
Zr409       O415   2.394       .  S
Zr409       O416   2.405       .  S
Zr409       O417   2.380       .  S
Zr409       O418   2.375       .  S
Zr410       O429   2.436       .  S
Zr410       O422   2.436       .  S
Zr410       O423   2.461       .  S
Zr410       O416   2.402       .  S
Zr410       O417   2.392       .  S
Zr411       O413   2.435       .  S
Zr411       O435   2.436   1_556  S
Zr411       O437   2.444       .  S
Zr411       O415   2.389       .  S
Zr411       O418   2.387       .  S
Zr412       O438   2.437   1_556  S
Zr412       O439   2.436   1_556  S
Zr412       O414   2.438       .  S
Zr412       O415   2.402       .  S
Zr412       O416   2.394       .  S
O413        H450   0.990   1_556  S
O414        H445   0.990       .  S
O414        H459   0.990       .  S
O416        H442   0.966       .  S
O417       Zr427   2.376       .  S
O418       Zr427   2.374       .  S
O418        H443   0.966       .  S
C419       C1342   1.471       .  S
C420        C908   1.483       .  S
C421        C926   1.484       .  S
O422        H458   0.990       .  S
O423        C425   1.289       .  A
O424        C425   1.281       .  A
C425       C1018   1.483       .  S
O426       Zr427   2.436       .  S
O426        H455   0.990       .  S
Zr427       O430   2.435       .  S
Zr427       O431   2.439       .  S
Zr427       O432   2.423       .  S
O428        C433   1.283       .  A
O429        H446   0.990       .  S
O429        H461   0.990       .  S
O430        H447   0.990       .  S
O431        H451   0.990       .  S
O431        H460   0.990       .  S
O432        C433   1.283       .  A
C433        C944   1.477       .  S
O434        H453   0.990       .  S
O434        H457   0.990       .  S
O435        H449   0.990       .  S
O435        H456   0.990       .  S
O436        C440   1.283       .  A
O437        C440   1.288       .  A
O438        H448   0.990       .  S
O439        H452   0.990   1_554  S
C440       C1234   1.482       .  S
Zr463       O464   2.438       .  S
Zr463       O465   2.430       .  S
Zr463       O466   2.432       .  S
Zr463       O469   2.455       .  S
Zr463       O471   2.386       .  S
Zr463       O472   2.383       .  S
Zr463       O473   2.413       .  S
Zr463       O474   2.402       .  S
O464        H520   0.990       .  S
O464        H528   0.990       .  S
O465        C485   1.283       .  A
O466        C487   1.286       .  A
O467       Zr477   2.426       .  S
O467        C486   1.286       .  A
O468       Zr476   2.442       .  S
O468        C487   1.286       .  A
O469        C486   1.289       .  A
O470       Zr478   2.418       .  S
O470        C485   1.282       .  A
O471       Zr476   2.393       .  S
O471       Zr478   2.370       .  S
O472       Zr477   2.393       .  S
O472       Zr478   2.373       .  S
O472        H507   0.966       .  S
O473       Zr476   2.405       .  S
O473       Zr493   2.386       .  S
O473        H510   0.966       .  S
O474       Zr477   2.391       .  S
O474       Zr493   2.400       .  S
Zr475       O500   2.446       .  S
Zr475       O494   2.423       .  S
Zr475       O502   2.429       .  S
Zr475       O490   2.413       .  S
Zr475       O481   2.396       .  S
Zr475       O482   2.399       .  S
Zr475       O483   2.383       .  S
Zr475       O484   2.380       .  S
Zr476       O495   2.438       .  S
Zr476       O488   2.434       .  S
Zr476       O489   2.454       .  S
Zr476       O482   2.398       .  S
Zr476       O483   2.385       .  S
Zr477       O479   2.435       .  S
Zr477       O501   2.437       .  S
Zr477       O503   2.432       .  S
Zr477       O481   2.394       .  S
Zr477       O484   2.386       .  S
Zr478       O504   2.437       .  S
Zr478       O505   2.435       .  S
Zr478       O480   2.437       .  S
Zr478       O481   2.401       .  S
Zr478       O482   2.386       .  S
O479        H516   0.990       .  S
O480        H511   0.990       .  S
O480        H525   0.989       .  S
O482        H508   0.966       .  S
O483       Zr493   2.373       .  S
O484       Zr493   2.372       .  S
O484        H509   0.966       .  S
C485        C872   1.477       .  S
C486       C1252   1.492       .  S
C487        C892   1.482       .  S
O488        H524   0.990       .  S
O489        C491   1.288       .  A
O490        C491   1.283       .  A
C491        C946   1.482       .  S
O492       Zr493   2.435       .  S
O492        H521   0.990       .  S
Zr493       O496   2.435       .  S
Zr493       O497   2.438       .  S
Zr493       O498   2.422       .  S
O494        C499   1.282       .  A
O495        H512   0.990       .  S
O495        H527   0.990       .  S
O496        H513   0.990       .  S
O497        H517   0.990       .  S
O497        H526   0.990       .  S
O498        C499   1.283       .  A
C499       C1000   1.470       .  S
O500        H519   0.990       .  S
O500        H523   0.990       .  S
O501        H515   0.990       .  S
O501        H522   0.990       .  S
O502        C506   1.282       .  A
O503        C506   1.285       .  A
O504        H514   0.990       .  S
O505        H518   0.990       .  S
C506       C1108   1.471       .  S
Zr529       O530   2.440       .  S
Zr529       O531   2.414       .  S
Zr529       O532   2.411       .  S
Zr529       O535   2.436       .  S
Zr529       O537   2.384       .  S
Zr529       O538   2.375       .  S
Zr529       O539   2.400       .  S
Zr529       O540   2.392       .  S
O530        H586   0.990       .  S
O530        H594   0.990       .  S
O531        C551   1.280       .  A
O532        C553   1.282       .  A
O533       Zr543   2.417       .  S
O533        C552   1.283       .  A
O534       Zr542   2.457       .  S
O534        C553   1.288       .  A
O535        C552   1.284       .  A
O536       Zr544   2.448       .  S
O536        C551   1.287       .  A
O537       Zr542   2.393       .  S
O537       Zr544   2.375       .  S
O538       Zr543   2.383       .  S
O538       Zr544   2.368       .  S
O538        H573   0.966       .  S
O539       Zr542   2.409       .  S
O539       Zr559   2.386       .  S
O539        H576   0.966       .  S
O540       Zr543   2.390       .  S
O540       Zr559   2.393       .  S
Zr541       O566   2.443       .  S
Zr541       O560   2.443       .  S
Zr541       O568   2.449       .  S
Zr541       O556   2.421       .  S
Zr541       O547   2.406       .  S
Zr541       O548   2.415       .  S
Zr541       O549   2.380       .  S
Zr541       O550   2.380       .  S
Zr542       O561   2.435       .  S
Zr542       O554   2.434       .  S
Zr542       O555   2.465       .  S
Zr542       O548   2.402       .  S
Zr542       O549   2.391       .  S
Zr543       O545   2.435       .  S
Zr543       O567   2.438       .  S
Zr543       O569   2.413       .  S
Zr543       O547   2.385       .  S
Zr543       O550   2.392       .  S
Zr544       O570   2.437       .  S
Zr544       O571   2.436       .  S
Zr544       O546   2.436       .  S
Zr544       O547   2.404       .  S
Zr544       O548   2.397       .  S
O545        H582   0.990       .  S
O546        H577   0.990       .  S
O546        H591   0.990       .  S
O548        H574   0.965       .  S
O549       Zr559   2.378       .  S
O550       Zr559   2.370       .  S
O550        H575   0.965       .  S
C551        C890   1.477       .  S
C552       C1216   1.471       .  S
C553        C836   1.485       .  S
O554        H590   0.990       .  S
O555        C557   1.291       .  A
O556        C557   1.282       .  A
C557       C1036   1.480       .  S
O558       Zr559   2.435       .  S
O558        H587   0.990       .  S
Zr559       O562   2.436       .  S
Zr559       O563   2.439       .  S
Zr559       O564   2.414       .  S
O560        C565   1.286       .  A
O561        H578   0.990       .  S
O561        H593   0.990       .  S
O562        H579   0.990       .  S
O563        H583   0.990       .  S
O563        H592   0.990       .  S
O564        C565   1.280       .  A
C565        C856   1.473       .  S
O566        H585   0.991       .  S
O566        H589   0.990       .  S
O567        H581   0.990       .  S
O567        H588   0.990       .  S
O568        C572   1.287       .  A
O569        C572   1.281       .  A
O570        H580   0.990       .  S
O571        H584   0.990       .  S
C572        C910   1.472       .  S
Zr595       O596   2.437       .  S
Zr595       O597   2.428       .  S
Zr595       O598   2.425       .  S
Zr595       O601   2.438       .  S
Zr595       O603   2.379       .  S
Zr595       O604   2.379       .  S
Zr595       O605   2.407       .  S
Zr595       O606   2.402       .  S
O596        H652   0.990       .  S
O596        H660   0.990       .  S
O597        C617   1.284       .  A
O598        C619   1.285       .  A
O599       Zr609   2.435       .  S
O599        C618   1.286       .  A
O600       Zr608   2.448       .  S
O600        C619   1.287       .  A
O601        C618   1.286       .  A
O602       Zr610   2.435       .  S
O602        C617   1.283       .  A
O603       Zr608   2.388       .  S
O603       Zr610   2.372       .  S
O604       Zr609   2.392       .  S
O604       Zr610   2.365       .  S
O604        H639   0.966       .  S
O605       Zr608   2.402       .  S
O605       Zr625   2.391       .  S
O605        H642   0.966       .  S
O606       Zr609   2.392       .  S
O606       Zr625   2.402       .  S
Zr607       O632   2.445       .  S
Zr607       O626   2.424       .  S
Zr607       O634   2.435       .  S
Zr607       O622   2.420       .  S
Zr607       O613   2.399       .  S
Zr607       O614   2.403       .  S
Zr607       O615   2.377       .  S
Zr607       O616   2.381       .  S
Zr608       O627   2.436       .  S
Zr608       O620   2.434       .  S
Zr608       O621   2.448       .  S
Zr608       O614   2.399       .  S
Zr608       O615   2.386       .  S
Zr609       O611   2.435       .  S
Zr609       O633   2.436       .  S
Zr609       O635   2.443       .  S
Zr609       O613   2.393       .  S
Zr609       O616   2.389       .  S
Zr610       O636   2.436       .  S
Zr610       O637   2.434       .  S
Zr610       O612   2.436       .  S
Zr610       O613   2.401       .  S
Zr610       O614   2.393       .  S
O611        H648   0.990       .  S
O612        H643   0.990       .  S
O612        H657   0.990       .  S
O614        H640   0.966       .  S
O615       Zr625   2.373       .  S
O616       Zr625   2.378       .  S
O616        H641   0.966       .  S
C617        C820   1.479       .  S
C618       C1090   1.476       .  S
C619       C1162   1.482       .  S
O620        H656   0.990       .  S
O621        C623   1.287       .  A
O622        C623   1.284       .  A
C623        C874   1.482       .  S
O624       Zr625   2.439       .  S
O624        H653   0.990       .  S
Zr625       O628   2.438       .  S
Zr625       O629   2.438       .  S
Zr625       O630   2.430       .  S
O626        C631   1.283       .  A
O627        H644   0.990       .  S
O627        H659   0.990       .  S
O628        H645   0.990       .  S
O629        H649   0.990       .  S
O629        H658   0.990       .  S
O630        C631   1.283       .  A
C631        C838   1.474       .  S
O632        H651   0.990       .  S
O632        H655   0.990       .  S
O633        H647   0.990       .  S
O633        H654   0.990       .  S
O634        C638   1.284       .  A
O635        C638   1.287       .  A
O636        H646   0.990       .  S
O637        H650   0.990       .  S
C638       C1412   1.486       .  S
Zr661       O662   2.442       .  S
Zr661       O663   2.442   1_545  S
Zr661       O664   2.425       .  S
Zr661       O667   2.440   1_545  S
Zr661       O669   2.382       .  S
Zr661       O670   2.381   1_545  S
Zr661       O671   2.410       .  S
Zr661       O672   2.404       .  S
O662        H718   0.991       .  S
O662        H726   0.990       .  S
O663        C683   1.285       .  A
O664        C685   1.283       .  A
O665       Zr675   2.421   1_565  S
O665        C684   1.284       .  A
O666       Zr674   2.451       .  S
O666        C685   1.286       .  A
O667        C684   1.284       .  A
O668       Zr676   2.416   1_565  S
O668        C683   1.279       .  A
O669       Zr674   2.397       .  S
O669       Zr676   2.383       .  S
O670       Zr675   2.387   1_565  S
O670       Zr676   2.377   1_565  S
O670        H705   0.966       .  S
O671       Zr674   2.402       .  S
O671       Zr691   2.396       .  S
O671        H708   0.965       .  S
O672       Zr675   2.387       .  S
O672       Zr691   2.397       .  S
Zr673       O698   2.440       .  S
Zr673       O692   2.434       .  S
Zr673       O700   2.439       .  S
Zr673       O688   2.422       .  S
Zr673       O679   2.400       .  S
Zr673       O680   2.408       .  S
Zr673       O681   2.380       .  S
Zr673       O682   2.381       .  S
Zr674       O693   2.436       .  S
Zr674       O686   2.434       .  S
Zr674       O687   2.448       .  S
Zr674       O680   2.402       .  S
Zr674       O681   2.395       .  S
Zr675       O677   2.435   1_545  S
Zr675       O699   2.436   1_545  S
Zr675       O701   2.418       .  S
Zr675       O679   2.388       .  S
Zr675       O682   2.393       .  S
Zr676       O702   2.434   1_545  S
Zr676       O703   2.439       .  S
Zr676       O678   2.437       .  S
Zr676       O679   2.392       .  S
Zr676       O680   2.390       .  S
O677        H714   0.989   1_565  S
O678        H709   0.990       .  S
O678        H723   0.990       .  S
O680        H706   0.965       .  S
O681       Zr691   2.376       .  S
O682       Zr691   2.375       .  S
O682        H707   0.966       .  S
C683        C928   1.471       .  S
C684        C802   1.482       .  S
C685       C1396   1.485       .  S
O686        H722   0.990       .  S
O687        C689   1.287       .  A
O688        C689   1.283       .  A
C689        C818   1.479       .  S
O690       Zr691   2.439       .  S
O690        H719   0.991       .  S
Zr691       O694   2.437       .  S
Zr691       O695   2.439       .  S
Zr691       O696   2.429       .  S
O692        C697   1.284       .  A
O693        H710   0.990       .  S
O693        H725   0.990       .  S
O694        H711   0.990       .  S
O695        H715   0.990       .  S
O695        H724   0.990       .  S
O696        C697   1.282       .  A
C697       C1126   1.473       .  S
O698        H717   0.990       .  S
O698        H721   0.990       .  S
O699        H713   0.990       .  S
O699        H720   0.990       .  S
O700        C704   1.285       .  A
O701        C704   1.284       .  A
O702        H712   0.990       .  S
O703        H716   0.990       .  S
C704        C980   1.482       .  S
Zr727       O728   2.441       .  S
Zr727       O729   2.438   1_554  S
Zr727       O730   2.420       .  S
Zr727       O733   2.446   1_554  S
Zr727       O735   2.384       .  S
Zr727       O736   2.379   1_554  S
Zr727       O737   2.412       .  S
Zr727       O738   2.405       .  S
O728        H784   0.990       .  S
O728        H792   0.990       .  S
O729        C749   1.285       .  A
O730        C751   1.283       .  A
O731       Zr741   2.411   1_556  S
O731        C750   1.282       .  A
O732       Zr740   2.460       .  S
O732        C751   1.289       .  A
O733        C750   1.285       .  A
O734       Zr742   2.415   1_556  S
O734        C749   1.280       .  A
O735       Zr740   2.392       .  S
O735       Zr742   2.380       .  S
O736       Zr741   2.382   1_556  S
O736       Zr742   2.370   1_556  S
O736        H771   0.966       .  S
O737       Zr740   2.404       .  S
O737       Zr757   2.394       .  S
O737        H774   0.965       .  S
O738       Zr741   2.385       .  S
O738       Zr757   2.402       .  S
Zr739       O764   2.443       .  S
Zr739       O758   2.425       .  S
Zr739       O766   2.455       .  S
Zr739       O754   2.419       .  S
Zr739       O745   2.400       .  S
Zr739       O746   2.407       .  S
Zr739       O747   2.383       .  S
Zr739       O748   2.378       .  S
Zr740       O759   2.436       .  S
Zr740       O752   2.434       .  S
Zr740       O753   2.457       .  S
Zr740       O746   2.402       .  S
Zr740       O747   2.392       .  S
Zr741       O743   2.434   1_554  S
Zr741       O765   2.437   1_554  S
Zr741       O767   2.409       .  S
Zr741       O745   2.387       .  S
Zr741       O748   2.386       .  S
Zr742       O768   2.436   1_554  S
Zr742       O769   2.434       .  S
Zr742       O744   2.437       .  S
Zr742       O745   2.397       .  S
Zr742       O746   2.383       .  S
O743        H780   0.990       .  S
O744        H775   0.990       .  S
O744        H789   0.990       .  S
O746        H772   0.966       .  S
O747       Zr757   2.375       .  S
O748       Zr757   2.368       .  S
O748        H773   0.965       .  S
C749       C1144   1.468       .  S
C750        C962   1.478       .  S
C751       C1196   1.486       .  S
O752        H788   0.990       .  S
O753        C755   1.290       .  A
O754        C755   1.282       .  A
C755        C854   1.475       .  S
O756       Zr757   2.438       .  S
O756        H785   0.990       .  S
Zr757       O760   2.436       .  S
Zr757       O761   2.441       .  S
Zr757       O762   2.437       .  S
O758        C763   1.283       .  A
O759        H776   0.990       .  S
O759        H791   0.990       .  S
O760        H777   0.990       .  S
O761        H781   0.990       .  S
O761        H790   0.990       .  S
O762        C763   1.284       .  A
C763       C1052   1.475       .  S
O764        H783   0.990       .  S
O764        H787   0.990       .  S
O765        H779   0.990       .  S
O765        H786   0.990       .  S
O766        C770   1.289       .  A
O767        C770   1.280       .  A
O768        H778   0.990       .  S
O769        H782   0.990       .  S
C770        C800   1.473       .  S
C793        C801   1.487       .  S
C793        C794   1.403       .  A
C793        C798   1.410       .  A
C794        C795   1.393   1_556  A
C794        H803   1.084       .  S
C795        C796   1.405       .  A
C795        H804   1.083       .  S
C796        C799   1.486       .  S
C796        C797   1.403       .  A
C797        C798   1.404   1_554  A
C797        H805   1.083       .  S
C798        H806   1.081       .  S
C799        H807   1.086       .  S
C799        C800   1.343       .  D
C800        H808   1.088   1_554  S
C801        H809   1.088       .  S
C801        C802   1.348       .  D
C802        H810   1.084       .  S
C811        C819   1.491       .  S
C811        C812   1.404       .  A
C811        C816   1.409       .  A
C812        C813   1.399       .  A
C812        H821   1.083       .  S
C813        C814   1.403       .  A
C813        H822   1.083       .  S
C814        C817   1.485       .  S
C814        C815   1.406       .  A
C815        C816   1.399       .  A
C815        H823   1.082       .  S
C816        H824   1.080       .  S
C817        H825   1.087       .  S
C817        C818   1.349       .  D
C818        H826   1.085       .  S
C819        H827   1.087       .  S
C819        C820   1.348       .  D
C820        H828   1.084       .  S
C829        C837   1.486       .  S
C829        C830   1.406       .  A
C829        C834   1.405       .  A
C830        C831   1.404       .  A
C830        H839   1.083       .  S
C831        C832   1.408       .  A
C831        H840   1.081       .  S
C832        C835   1.486       .  S
C832        C833   1.404       .  A
C833        C834   1.392       .  A
C833        H841   1.084       .  S
C834        H842   1.082       .  S
C835        H843   1.087       .  S
C835        C836   1.352       .  D
C836        H844   1.084       .  S
C837        H845   1.087       .  S
C837        C838   1.348       .  D
C838        H846   1.085       .  S
C847        C855   1.495       .  S
C847        C848   1.406       .  A
C847        C852   1.412       .  A
C848        C849   1.400       .  A
C848        H857   1.083       .  S
C849        C850   1.407       .  A
C849        H858   1.082       .  S
C850        C853   1.487       .  S
C850        C851   1.401       .  A
C851        C852   1.398       .  A
C851        H859   1.084       .  S
C852        H860   1.078       .  S
C853        H861   1.087       .  S
C853        C854   1.344       .  D
C854        H862   1.086       .  S
C855        H863   1.088       .  S
C855        C856   1.347       .  D
C856        H864   1.081       .  S
C865        C873   1.487       .  S
C865        C866   1.405       .  A
C865        C870   1.406       .  A
C866        C867   1.398       .  A
C866        H875   1.083       .  S
C867        C868   1.407       .  A
C867        H876   1.080       .  S
C868        C871   1.486       .  S
C868        C869   1.405       .  A
C869        C870   1.398       .  A
C869        H877   1.084       .  S
C870        H878   1.081       .  S
C871        H879   1.087       .  S
C871        C872   1.349       .  D
C872        H880   1.083       .  S
C873        H881   1.087       .  S
C873        C874   1.350       .  D
C874        H882   1.084       .  S
C883        C891   1.491       .  S
C883        C884   1.403       .  A
C883        C888   1.410       .  A
C884        C885   1.395       .  A
C884        H893   1.084       .  S
C885        C886   1.407       .  A
C885        H894   1.081       .  S
C886        C889   1.491       .  S
C886        C887   1.404       .  A
C887        C888   1.403       .  A
C887        H895   1.083       .  S
C888        H896   1.080       .  S
C889        H897   1.087       .  S
C889        C890   1.346       .  D
C890        H898   1.085       .  S
C891        H899   1.087       .  S
C891        C892   1.348       .  D
C892        H900   1.084       .  S
C901        C909   1.486       .  S
C901        C902   1.404       .  A
C901        C906   1.405       .  A
C902        C903   1.406       .  A
C902        H911   1.083       .  S
C903        C904   1.411       .  A
C903        H912   1.081       .  S
C904        C907   1.488       .  S
C904        C905   1.402       .  A
C905        C906   1.391       .  A
C905        H913   1.084       .  S
C906        H914   1.083       .  S
C907        H915   1.087       .  S
C907        C908   1.346       .  D
C908        H916   1.084       .  S
C909        H917   1.086       .  S
C909        C910   1.344       .  D
C910        H918   1.087       .  S
C919        C927   1.485       .  S
C919        C920   1.405       .  A
C919        C924   1.404       .  A
C920        C921   1.403       .  A
C920        H929   1.083       .  S
C921        C922   1.407       .  A
C921        H930   1.082       .  S
C922        C925   1.485       .  S
C922        C923   1.404       .  A
C923        C924   1.396       .  A
C923        H931   1.084       .  S
C924        H932   1.082       .  S
C925        H933   1.087       .  S
C925        C926   1.349       .  D
C926        H934   1.086       .  S
C927        H935   1.087       .  S
C927        C928   1.344       .  D
C928        H936   1.086       .  S
C937        C945   1.486       .  S
C937        C938   1.404       .  A
C937        C942   1.406       .  A
C938        C939   1.396       .  A
C938        H947   1.084       .  S
C939        C940   1.406       .  A
C939        H948   1.081       .  S
C940        C943   1.487       .  S
C940        C941   1.405       .  A
C941        C942   1.400       .  A
C941        H949   1.083       .  S
C942        H950   1.081       .  S
C943        H951   1.087       .  S
C943        C944   1.348       .  D
C944        H952   1.084       .  S
C945        H953   1.087       .  S
C945        C946   1.351       .  D
C946        H954   1.084       .  S
C955        C963   1.479       .  S
C955        C956   1.399       .  A
C955        C960   1.409       .  A
C956        C957   1.390       .  A
C956        H965   1.084       .  S
C957        C958   1.402       .  A
C957        H966   1.084       .  S
C958        C961   1.481       .  S
C958        C959   1.407       .  A
C959        C960   1.404       .  A
C959        H967   1.082       .  S
C960        H968   1.082   1_655  S
C961        H969   1.088       .  S
C961        C962   1.347       .  D
C962        H970   1.085       .  S
C963        H971   1.088       .  S
C963        C964   1.344   1_655  D
C964        H972   1.086       .  S
C973        C981   1.485       .  S
C973        C974   1.402       .  A
C973        C978   1.409       .  A
C974        C975   1.390       .  A
C974        H983   1.084       .  S
C975        C976   1.401       .  A
C975        H984   1.084       .  S
C976        C979   1.486       .  S
C976        C977   1.410       .  A
C977        C978   1.405       .  A
C977        H985   1.081   1_565  S
C978        H986   1.081       .  S
C979        H987   1.087       .  S
C979        C980   1.348   1_565  D
C980        H988   1.084       .  S
C981        H989   1.087       .  S
C981        C982   1.349       .  D
C982        H990   1.084       .  S
C991        C999   1.481       .  S
C991        C992   1.404       .  A
C991        C996   1.404       .  A
C992        C993   1.392       .  A
C992       H1001   1.081       .  S
C993        C994   1.403       .  A
C993       H1002   1.084       .  S
C994        C997   1.482       .  S
C994        C995   1.407       .  A
C995        C996   1.399       .  A
C995       H1003   1.080       .  S
C996       H1004   1.083       .  S
C997       H1005   1.087       .  S
C997        C998   1.349       .  D
C998       H1006   1.083       .  S
C999       H1007   1.087       .  S
C999       C1000   1.346       .  D
C1000      H1008   1.085       .  S
C1009      C1017   1.481       .  S
C1009      C1010   1.404       .  A
C1009      C1014   1.405       .  A
C1010      C1011   1.397       .  A
C1010      H1019   1.084       .  S
C1011      C1012   1.405       .  A
C1011      H1020   1.083       .  S
C1012      C1015   1.484       .  S
C1012      C1013   1.405       .  A
C1013      C1014   1.401       .  A
C1013      H1021   1.083       .  S
C1014      H1022   1.082       .  S
C1015      H1023   1.087       .  S
C1015      C1016   1.344       .  D
C1016      H1024   1.086       .  S
C1017      H1025   1.087       .  S
C1017      C1018   1.351       .  D
C1018      H1026   1.086       .  S
C1027      C1035   1.494       .  S
C1027      C1028   1.403       .  A
C1027      C1032   1.409       .  A
C1028      C1029   1.401       .  A
C1028      H1037   1.083       .  S
C1029      C1030   1.410       .  A
C1029      H1038   1.080       .  S
C1030      C1033   1.497       .  S
C1030      C1031   1.406       .  A
C1031      C1032   1.401       .  A
C1031      H1039   1.083       .  S
C1032      H1040   1.082       .  S
C1033      H1041   1.087       .  S
C1033      C1034   1.350       .  D
C1034      H1042   1.083       .  S
C1035      H1043   1.087       .  S
C1035      C1036   1.346       .  D
C1036      H1044   1.085       .  S
C1045      C1053   1.481       .  S
C1045      C1046   1.404       .  A
C1045      C1050   1.405       .  A
C1046      C1047   1.399       .  A
C1046      H1055   1.083       .  S
C1047      C1048   1.404       .  A
C1047      H1056   1.083       .  S
C1048      C1051   1.481       .  S
C1048      C1049   1.404       .  A
C1049      C1050   1.399       .  A
C1049      H1057   1.083       .  S
C1050      H1058   1.083       .  S
C1051      H1059   1.088       .  S
C1051      C1052   1.345       .  D
C1052      H1060   1.086       .  S
C1053      H1061   1.087       .  S
C1053      C1054   1.346       .  D
C1054      H1062   1.086       .  S
C1063      C1071   1.494       .  S
C1063      C1064   1.406       .  A
C1063      C1068   1.409       .  A
C1064      C1065   1.401       .  A
C1064      H1073   1.083       .  S
C1065      C1066   1.407       .  A
C1065      H1074   1.081       .  S
C1066      C1069   1.489       .  S
C1066      C1067   1.404       .  A
C1067      C1068   1.398       .  A
C1067      H1075   1.084       .  S
C1068      H1076   1.080       .  S
C1069      H1077   1.087       .  S
C1069      C1070   1.350       .  D
C1070      H1078   1.085       .  S
C1071      H1079   1.087       .  S
C1071      C1072   1.349       .  D
C1072      H1080   1.083       .  S
C1081      C1089   1.482       .  S
C1081      C1082   1.403       .  A
C1081      C1086   1.406       .  A
C1082      C1083   1.401       .  A
C1082      H1091   1.083       .  S
C1083      C1084   1.406       .  A
C1083      H1092   1.083       .  S
C1084      C1087   1.481       .  S
C1084      C1085   1.402       .  A
C1085      C1086   1.399       .  A
C1085      H1093   1.083       .  S
C1086      H1094   1.083       .  S
C1087      H1095   1.087       .  S
C1087      C1088   1.346       .  D
C1088      H1096   1.086       .  S
C1089      H1097   1.087       .  S
C1089      C1090   1.344       .  D
C1090      H1098   1.087       .  S
C1099      C1107   1.478       .  S
C1099      C1100   1.403       .  A
C1099      C1104   1.404       .  A
C1100      C1101   1.399       .  A
C1100      H1109   1.083       .  S
C1101      C1102   1.405       .  A
C1101      H1110   1.083       .  S
C1102      C1105   1.478       .  S
C1102      C1103   1.403       .  A
C1103      C1104   1.397       .  A
C1103      H1111   1.083       .  S
C1104      H1112   1.083       .  S
C1105      H1113   1.088       .  S
C1105      C1106   1.344       .  D
C1106      H1114   1.086       .  S
C1107      H1115   1.087       .  S
C1107      C1108   1.341       .  D
C1108      H1116   1.087       .  S
C1117      C1125   1.483       .  S
C1117      C1118   1.405       .  A
C1117      C1122   1.404       .  A
C1118      C1119   1.402       .  A
C1118      H1127   1.083       .  S
C1119      C1120   1.406       .  A
C1119      H1128   1.082       .  S
C1120      C1123   1.483       .  S
C1120      C1121   1.404       .  A
C1121      C1122   1.397       .  A
C1121      H1129   1.084       .  S
C1122      H1130   1.083       .  S
C1123      H1131   1.087       .  S
C1123      C1124   1.349       .  D
C1124      H1132   1.086       .  S
C1125      H1133   1.087       .  S
C1125      C1126   1.345       .  D
C1126      H1134   1.086       .  S
C1135      C1143   1.477       .  S
C1135      C1136   1.403       .  A
C1135      C1140   1.404       .  A
C1136      C1137   1.400       .  A
C1136      H1145   1.083       .  S
C1137      C1138   1.406       .  A
C1137      H1146   1.082       .  S
C1138      C1141   1.475       .  S
C1138      C1139   1.402       .  A
C1139      C1140   1.393       .  A
C1139      H1147   1.084       .  S
C1140      H1148   1.083       .  S
C1141      H1149   1.088       .  S
C1141      C1142   1.346       .  D
C1142      H1150   1.086       .  S
C1143      H1151   1.087       .  S
C1143      C1144   1.341       .  D
C1144      H1152   1.087       .  S
C1153      C1161   1.492       .  S
C1153      C1154   1.405       .  A
C1153      C1158   1.409       .  A
C1154      C1155   1.398       .  A
C1154      H1163   1.084       .  S
C1155      C1156   1.407       .  A
C1155      H1164   1.081       .  S
C1156      C1159   1.490       .  S
C1156      C1157   1.404       .  A
C1157      C1158   1.400       .  A
C1157      H1165   1.083       .  S
C1158      H1166   1.079       .  S
C1159      H1167   1.087       .  S
C1159      C1160   1.348       .  D
C1160      H1168   1.084       .  S
C1161      H1169   1.087       .  S
C1161      C1162   1.350       .  D
C1162      H1170   1.083       .  S
C1171      C1179   1.495       .  S
C1171      C1172   1.405       .  A
C1171      C1176   1.410       .  A
C1172      C1173   1.398       .  A
C1172      H1181   1.083       .  S
C1173      C1174   1.407       .  A
C1173      H1182   1.081   1_556  S
C1174      C1177   1.491   1_556  S
C1174      C1175   1.404       .  A
C1175      C1176   1.402       .  A
C1175      H1183   1.083       .  S
C1176      H1184   1.079       .  S
C1177      H1185   1.087       .  S
C1177      C1178   1.348       .  D
C1178      H1186   1.085       .  S
C1179      H1187   1.087       .  S
C1179      C1180   1.350       .  D
C1180      H1188   1.083       .  S
C1189      C1197   1.494       .  S
C1189      C1190   1.406       .  A
C1189      C1194   1.408       .  A
C1190      C1191   1.402       .  A
C1190      H1199   1.083       .  S
C1191      C1192   1.407       .  A
C1191      H1200   1.080   1_455  S
C1192      C1195   1.492   1_455  S
C1192      C1193   1.405       .  A
C1193      C1194   1.397       .  A
C1193      H1201   1.084       .  S
C1194      H1202   1.079       .  S
C1195      H1203   1.087       .  S
C1195      C1196   1.353       .  D
C1196      H1204   1.083       .  S
C1197      H1205   1.087       .  S
C1197      C1198   1.349       .  D
C1198      H1206   1.082       .  S
C1207      C1215   1.476       .  S
C1207      C1208   1.402       .  A
C1207      C1212   1.404       .  A
C1208      C1209   1.398       .  A
C1208      H1217   1.083       .  S
C1209      C1210   1.405       .  A
C1209      H1218   1.083       .  S
C1210      C1213   1.478       .  S
C1210      C1211   1.403       .  A
C1211      C1212   1.398       .  A
C1211      H1219   1.083       .  S
C1212      H1220   1.083       .  S
C1213      H1221   1.088       .  S
C1213      C1214   1.344       .  D
C1214      H1222   1.086       .  S
C1215      H1223   1.088       .  S
C1215      C1216   1.343       .  D
C1216      H1224   1.086       .  S
C1225      C1233   1.489       .  S
C1225      C1226   1.401       .  A
C1225      C1230   1.411   1_554  A
C1226      C1227   1.395       .  A
C1226      H1235   1.084       .  S
C1227      C1228   1.408       .  A
C1227      H1236   1.083       .  S
C1228      C1231   1.492       .  S
C1228      C1229   1.404       .  A
C1229      C1230   1.405   1_554  A
C1229      H1237   1.083   1_554  S
C1230      H1238   1.081       .  S
C1231      H1239   1.086       .  S
C1231      C1232   1.345       .  D
C1232      H1240   1.087       .  S
C1233      H1241   1.087       .  S
C1233      C1234   1.345   1_554  D
C1234      H1242   1.085       .  S
C1243      C1251   1.492       .  S
C1243      C1244   1.402       .  A
C1243      C1248   1.411       .  A
C1244      C1245   1.392       .  A
C1244      H1253   1.084       .  S
C1245      C1246   1.403       .  A
C1245      H1254   1.084       .  S
C1246      C1249   1.492       .  S
C1246      C1247   1.410       .  A
C1247      C1248   1.411       .  A
C1247      H1255   1.081       .  S
C1248      H1256   1.081       .  S
C1249      H1257   1.087       .  S
C1249      C1250   1.352       .  D
C1250      H1258   1.084       .  S
C1251      H1259   1.087       .  S
C1251      C1252   1.351       .  D
C1252      H1260   1.085       .  S
C1261      C1269   1.487   1_455  S
C1261      C1262   1.402       .  A
C1261      C1266   1.410   1_455  A
C1262      C1263   1.390       .  A
C1262      H1271   1.084       .  S
C1263      C1264   1.401       .  A
C1263      H1272   1.084       .  S
C1264      C1267   1.486       .  S
C1264      C1265   1.410       .  A
C1265      C1266   1.408   1_455  A
C1265      H1273   1.082       .  S
C1266      H1274   1.081       .  S
C1267      H1275   1.087       .  S
C1267      C1268   1.348       .  D
C1268      H1276   1.085       .  S
C1269      H1277   1.088   1_655  S
C1269      C1270   1.348       .  D
C1270      H1278   1.084       .  S
C1279      C1287   1.499   1_655  S
C1279      C1280   1.405       .  A
C1279      C1284   1.410       .  A
C1280      C1281   1.402       .  A
C1280      H1289   1.083       .  S
C1281      C1282   1.410       .  A
C1281      H1290   1.080       .  S
C1282      C1285   1.499       .  S
C1282      C1283   1.405       .  A
C1283      C1284   1.402       .  A
C1283      H1291   1.083       .  S
C1284      H1292   1.081   1_655  S
C1285      H1293   1.087       .  S
C1285      C1286   1.349       .  D
C1286      H1294   1.084       .  S
C1287      H1295   1.087       .  S
C1287      C1288   1.347       .  D
C1288      H1296   1.084       .  S
C1297      C1305   1.485       .  S
C1297      C1298   1.403       .  A
C1297      C1302   1.407       .  A
C1298      C1299   1.400       .  A
C1298      H1307   1.083       .  S
C1299      C1300   1.408       .  A
C1299      H1308   1.081       .  S
C1300      C1303   1.483       .  S
C1300      C1301   1.402       .  A
C1301      C1302   1.395       .  A
C1301      H1309   1.084       .  S
C1302      H1310   1.082       .  S
C1303      H1311   1.087       .  S
C1303      C1304   1.347       .  D
C1304      H1312   1.085       .  S
C1305      H1313   1.087       .  S
C1305      C1306   1.345       .  D
C1306      H1314   1.085       .  S
C1315      C1323   1.483       .  S
C1315      C1316   1.404       .  A
C1315      C1320   1.406       .  A
C1316      C1317   1.399       .  A
C1316      H1325   1.083       .  S
C1317      C1318   1.408       .  A
C1317      H1326   1.081       .  S
C1318      C1321   1.481   1_545  S
C1318      C1319   1.402       .  A
C1319      C1320   1.392       .  A
C1319      H1327   1.084       .  S
C1320      H1328   1.081       .  S
C1321      H1329   1.087       .  S
C1321      C1322   1.346       .  D
C1322      H1330   1.084       .  S
C1323      H1331   1.087       .  S
C1323      C1324   1.346       .  D
C1324      H1332   1.084       .  S
C1333      C1341   1.487       .  S
C1333      C1334   1.405       .  A
C1333      C1338   1.407       .  A
C1334      C1335   1.399       .  A
C1334      H1343   1.083       .  S
C1335      C1336   1.406       .  A
C1335      H1344   1.081   1_565  S
C1336      C1339   1.483   1_565  S
C1336      C1337   1.403       .  A
C1337      C1338   1.394       .  A
C1337      H1345   1.084       .  S
C1338      H1346   1.079       .  S
C1339      H1347   1.087       .  S
C1339      C1340   1.350       .  D
C1340      H1348   1.084       .  S
C1341      H1349   1.087       .  S
C1341      C1342   1.346       .  D
C1342      H1350   1.083       .  S
C1351      C1359   1.491       .  S
C1351      C1352   1.406       .  A
C1351      C1356   1.406       .  A
C1352      C1353   1.404       .  A
C1352      H1361   1.083       .  S
C1353      C1354   1.409       .  A
C1353      H1362   1.080       .  S
C1354      C1357   1.495       .  S
C1354      C1355   1.405       .  A
C1355      C1356   1.398       .  A
C1355      H1363   1.083       .  S
C1356      H1364   1.081       .  S
C1357      H1365   1.087       .  S
C1357      C1358   1.352       .  D
C1358      H1366   1.083       .  S
C1359      H1367   1.087       .  S
C1359      C1360   1.351       .  D
C1360      H1368   1.085       .  S
C1369      C1377   1.493       .  S
C1369      C1370   1.405       .  A
C1369      C1374   1.409       .  A
C1370      C1371   1.401       .  A
C1370      H1379   1.083       .  S
C1371      C1372   1.409       .  A
C1371      H1380   1.081       .  S
C1372      C1375   1.492       .  S
C1372      C1373   1.403       .  A
C1373      C1374   1.399       .  A
C1373      H1381   1.083       .  S
C1374      H1382   1.080       .  S
C1375      H1383   1.087       .  S
C1375      C1376   1.347       .  D
C1376      H1384   1.085       .  S
C1377      H1385   1.087       .  S
C1377      C1378   1.349       .  D
C1378      H1386   1.083       .  S
C1387      C1395   1.488       .  S
C1387      C1388   1.404   1_556  A
C1387      C1392   1.407   1_556  A
C1388      C1389   1.397       .  A
C1388      H1397   1.084       .  S
C1389      C1390   1.407       .  A
C1389      H1398   1.081       .  S
C1390      C1393   1.491       .  S
C1390      C1391   1.406       .  A
C1391      C1392   1.402       .  A
C1391      H1399   1.083       .  S
C1392      H1400   1.081   1_554  S
C1393      H1401   1.087       .  S
C1393      C1394   1.349       .  D
C1394      H1402   1.084       .  S
C1395      H1403   1.087       .  S
C1395      C1396   1.351       .  D
C1396      H1404   1.085       .  S
C1405      C1413   1.492       .  S
C1405      C1406   1.403       .  A
C1405      C1410   1.407       .  A
C1406      C1407   1.407       .  A
C1406      H1415   1.083       .  S
C1407      C1408   1.413       .  A
C1407      H1416   1.080       .  S
C1408      C1411   1.495       .  S
C1408      C1409   1.403       .  A
C1409      C1410   1.395       .  A
C1409      H1417   1.084       .  S
C1410      H1418   1.083       .  S
C1411      H1419   1.087       .  S
C1411      C1412   1.348       .  D
C1412      H1420   1.083       .  S
C1413      H1421   1.086       .  S
C1413      C1414   1.344       .  D
C1414      H1422   1.088       .  S
C1423      C1431   1.490       .  S
C1423      C1424   1.405       .  A
C1423      C1428   1.407       .  A
C1424      C1425   1.406       .  A
C1424      H1433   1.083       .  S
C1425      C1426   1.410   1_565  A
C1425      H1434   1.081       .  S
C1426      C1429   1.487       .  S
C1426      C1427   1.401       .  A
C1427      C1428   1.392   1_545  A
C1427      H1435   1.084       .  S
C1428      H1436   1.083       .  S
C1429      H1437   1.088       .  S
C1429      C1430   1.347       .  D
C1430      H1438   1.085       .  S
C1431      H1439   1.086       .  S
C1431      C1432   1.345       .  D
C1432      H1440   1.087       .  S
