geometry optimzed in LAMMPS
_audit_creation_date              2020-11-30 
_audit_creation_method            'lammps2cif' 
_symmetry_space_group_name_H-M    'P1' 
_symmetry_Int_Tables_number       1 
_symmetry_cell_setting            triclinic 
loop_ 
_symmetry_equiv_pos_as_xyz 
  x,y,z 
_cell_length_a                    33.54632794742697 
_cell_length_b                    33.47250287982223 
_cell_length_c                    33.41880158849418 
_cell_angle_alpha                 89.94217656879552 
_cell_angle_beta                  90.25546017051487 
_cell_angle_gamma                 90.21740142821923 
loop_ 
_atom_site_label 
_atom_site_type_symbol 
_atom_site_fract_x 
_atom_site_fract_y 
_atom_site_fract_z 
_atom_site_charge 
C1          C  0.01655913  0.27264983  0.21254047     0.03940
C2          C  0.03823752  0.29854819  0.23718176    -0.12210
C3          C  0.04286518  0.29062542  0.27734099     0.01440
C4          C  0.03410374  0.25347852  0.29261011    -0.10730
C5          C  0.01219839  0.22610768  0.27018047     0.03930
C6          C  0.00240608  0.23567833  0.22933206    -0.10160
H7          H  0.04521021  0.32858287  0.22693196     0.09530
H8          H  0.03899912  0.24825344  0.32435351     0.07060
H9          H  0.98405967  0.21563693  0.21170250     0.06900
O10         O  0.00511766  0.38994176  0.43078137    -0.79320
O11         O  0.99571349  0.61363262  0.43429812    -0.80870
O12         O  0.93044532  0.49970997  0.38690176    -0.77890
O13         O  0.06892375  0.50031652  0.38808528    -0.76280
O14         O  0.11466170  0.49630260  0.43838049    -0.78070
O15         O  0.88425771  0.49987997  0.43703037    -0.79000
O16         O  0.00084585  0.56518638  0.38633798    -0.80330
O17         O  0.00556410  0.44101327  0.38472200    -0.80610
Eu18       Eu  0.99913122  0.50195295  0.41926179     2.39200
O19         O  0.03934648  0.54217859  0.46043797    -0.88120
O20         O  0.95724423  0.46000214  0.45808138    -0.91730
C21         C  0.00888044  0.40456124  0.39528466     1.02960
C22         C  0.99732111  0.60144513  0.39777320     1.02780
C23         C  0.89382280  0.49948867  0.39982720     1.02720
C24         C  0.10572656  0.49760740  0.40100120     1.00580
H25         H  0.94031145  0.55791986  0.44321247     0.30330
O26         O  0.95765893  0.54174888  0.45966612    -1.00510
H27         H  0.05549210  0.44432233  0.44419340     0.30370
O28         O  0.03751114  0.46001317  0.46013983    -1.03050
O29         O  0.99082715  0.61357670  0.56430068    -0.80280
O30         O  0.01004944  0.38774312  0.56208215    -0.79820
O31         O  0.88166960  0.56202329  0.50446145    -0.78250
O32         O  0.11365175  0.56245018  0.49961885    -0.81590
O33         O  0.11129633  0.43362991  0.50386347    -0.79450
O34         O  0.88016583  0.44080826  0.50291047    -0.78100
O35         O  0.93390974  0.49039922  0.61662083    -0.79620
O36         O  0.06699148  0.50698347  0.61397792    -0.81540
O37         O  0.88667732  0.49517463  0.56733692    -0.78280
O38         O  0.11310790  0.50556684  0.56464962    -0.80960
O39         O  0.92669171  0.61325218  0.50156321    -0.76690
O40         O  0.92364034  0.38846151  0.50220047    -0.76730
O41         O  0.06487870  0.38355079  0.49927188    -0.76370
O42         O  0.06782835  0.61311162  0.50186727    -0.79870
O43         O  0.98919204  0.56374366  0.61031596    -0.79290
O44         O  0.00864553  0.43333288  0.61249165    -0.77620
Eu45       Eu  0.99767914  0.58267532  0.50024737     2.39770
Eu46       Eu  0.99633913  0.41709208  0.49795237     2.39570
Eu47       Eu  0.91906040  0.50033108  0.50135013     2.38400
Eu48       Eu  0.07809501  0.49932935  0.50101143     2.39880
Eu49       Eu  0.99941451  0.49833877  0.58160631     2.39790
O50         O  0.03730711  0.45772848  0.53934259    -0.92030
O51         O  0.95936679  0.54032821  0.54163950    -0.90930
C52         C  0.98626510  0.60058117  0.60002684     1.03140
C53         C  0.01349744  0.39773138  0.59893428     1.01850
C54         C  0.89001025  0.59941324  0.50303717     1.01240
C55         C  0.10438634  0.59958096  0.50095534     1.03260
C56         C  0.10175197  0.39620193  0.50234574     1.02170
C57         C  0.88730157  0.40343851  0.50346832     1.01020
C58         C  0.89716926  0.49104154  0.60432496     1.01080
C59         C  0.10370165  0.50907480  0.60165413     1.03700
H60         H  0.94231521  0.44058994  0.55736023     0.31070
O61         O  0.95852763  0.45768067  0.54072045    -1.04200
H62         H  0.05440105  0.55786157  0.55756844     0.33120
O63         O  0.03803554  0.54081365  0.54092595    -1.06760
C64         C  0.00082560  0.73903970  0.78625142     0.03940
C65         C  0.01712750  0.77554386  0.77095486    -0.12210
C66         C  0.01433130  0.78298681  0.72894416     0.01440
C67         C  0.00217304  0.75182664  0.70450168    -0.10730
C68         C  0.98161533  0.71901829  0.71995519     0.03930
C69         C  0.97718668  0.71570263  0.76104963    -0.10160
H70         H  0.03169350  0.79674146  0.79063378     0.09530
H71         H  0.00705414  0.75462980  0.67260235     0.07060
H72         H  0.96020976  0.69111925  0.77351915     0.06900
C73         C  0.99436197  0.27478347  0.78058589     0.03940
C74         C  0.01439138  0.29768323  0.75218659    -0.12210
C75         C  0.03295764  0.28043773  0.71948017     0.01440
C76         C  0.03515506  0.23932849  0.71694839    -0.10730
C77         C  0.00976707  0.21512832  0.73973417     0.03930
C78         C  0.98994453  0.23277861  0.77329543    -0.10160
H79         H  0.01404455  0.32991859  0.75481445     0.09530
H80         H  0.05142404  0.22681961  0.69199530     0.07060
H81         H  0.97148693  0.21466139  0.79267858     0.06900
C82         C  0.98445223  0.74102059  0.21501984     0.03940
C83         C  0.96933949  0.71358611  0.24258669    -0.12210
C84         C  0.96713728  0.72323869  0.28250517     0.01440
C85         C  0.96788264  0.76249641  0.29402143    -0.10730
C86         C  0.97598102  0.79350768  0.26714400     0.03930
C87         C  0.98692345  0.78240086  0.22685626    -0.10160
H88         H  0.96702168  0.68235347  0.23432823     0.09530
H89         H  0.96543396  0.76826752  0.32585267     0.07060
H90         H  0.99747524  0.80457681  0.20585845     0.06900
O91         O  0.00722328  0.12269495  0.43662207    -0.79320
O92         O  0.00003067  0.89789554  0.42670154    -0.80870
O93         O  0.07374279  0.01187508  0.39069060    -0.77890
O94         O  0.94777133  0.01066332  0.38225105    -0.76280
O95         O  0.89580876  0.00693107  0.42629065    -0.78070
O96         O  0.12192311  0.01193400  0.43933792    -0.79000
O97         O  0.00565215  0.94938829  0.38224681    -0.80330
O98         O  0.00731202  0.07404936  0.38891458    -0.80610
Eu99       Eu  0.00844133  0.01012185  0.42202164     2.39200
O100        O  0.96525517  0.96873919  0.45829551    -0.88120
O101        O  0.04830477  0.04953312  0.46477630    -0.91730
C102        C  0.00727867  0.11086510  0.39926717     1.02960
C103        C  0.00112842  0.91214865  0.39030237     1.02780
C104        C  0.11036864  0.01264384  0.40203474     1.02720
C105        C  0.91040487  0.00861185  0.39001702     1.00580
H106        H  0.06319555  0.95162996  0.44407253     0.30330
O107        O  0.04657792  0.96722274  0.46161731    -1.00510
H108        H  0.95074897  0.06607458  0.44398660     0.30370
O109        O  0.96628390  0.04919410  0.46149804    -1.03050
O110        O  0.00661762  0.88909306  0.56480219    -0.80280
O111        O  0.99925811  0.11488698  0.57693488    -0.79820
O112        O  0.11573761  0.94112435  0.50096478    -0.78250
O113        O  0.88871905  0.94519713  0.49556721    -0.81590
O114        O  0.89248897  0.07305135  0.49734523    -0.79450
O115        O  0.11463754  0.07117983  0.51702689    -0.78100
O116        O  0.06369644  0.00299590  0.62052039    -0.79620
O117        O  0.93797822  0.99782252  0.61563611    -0.81540
O118        O  0.11544674  0.00497756  0.57634715    -0.78280
O119        O  0.89035623  0.00441543  0.56720993    -0.80960
O120        O  0.06711463  0.89295374  0.49651925    -0.76690
O121        O  0.06874669  0.12132409  0.51271856    -0.76730
O122        O  0.94278153  0.11959903  0.49980445    -0.76370
O123        O  0.93656574  0.89667784  0.49346374    -0.79870
O124        O  0.00434072  0.93671578  0.61374730    -0.79290
O125        O  0.99683964  0.06264908  0.62111918    -0.77620
Eu126      Eu  0.00320098  0.92501994  0.49772580     2.39770
Eu127      Eu  0.00560079  0.08802756  0.50523630     2.39570
Eu128      Eu  0.08589402  0.00625428  0.50581340     2.38400
Eu129      Eu  0.92306250  0.00776346  0.49831833     2.39880
Eu130      Eu  0.00150791  0.00197695  0.58191066     2.39790
O131        O  0.96294809  0.04581513  0.54233064    -0.92030
O132        O  0.04325490  0.96324221  0.54166806    -0.90930
C133        C  0.00663788  0.90021238  0.60223106     1.03140
C134        C  0.99681399  0.10013598  0.61316791     1.01850
C135        C  0.10353168  0.90482614  0.49776423     1.01240
C136        C  0.90015371  0.90880341  0.49370532     1.03260
C137        C  0.90623491  0.10894863  0.49744588     1.02170
C138        C  0.10411129  0.10798218  0.51837014     1.01020
C139        C  0.10121121  0.00443610  0.61270812     1.01080
C140        C  0.90141827  0.99999968  0.60457725     1.03700
H141        H  0.05824521  0.06023254  0.56500566     0.31070
O142        O  0.04324493  0.04468794  0.54580100    -1.04200
H143        H  0.94449033  0.94656673  0.55414921     0.33120
O144        O  0.96144611  0.96389947  0.53850931    -1.06760
C145        C  0.23292352  0.28311960  0.51981282     0.03940
C146        C  0.20942952  0.25641388  0.54112643    -0.12210
C147        C  0.22455974  0.22070027  0.55514921     0.01440
C148        C  0.26507454  0.21447450  0.55586626    -0.10730
C149        C  0.29051691  0.23704506  0.53145475     0.03930
C150        C  0.27417579  0.27276056  0.51313446    -0.10160
H151        H  0.17750298  0.26135611  0.54243058     0.09530
H152        H  0.27480835  0.18614748  0.56820758     0.07060
H153        H  0.29248776  0.29131681  0.49405629     0.06900
C154        C  0.76282462  0.29238685  0.50217847     0.03940
C155        C  0.79455164  0.26939277  0.48911295    -0.12210
C156        C  0.79137572  0.22870528  0.48841582     0.01440
C157        C  0.75531937  0.20980190  0.49503339    -0.10730
C158        C  0.72017062  0.23142970  0.49993158     0.03930
C159        C  0.72413913  0.27392628  0.50618941    -0.10160
H160        H  0.82371067  0.28279694  0.48431331     0.09530
H161        H  0.75468570  0.17737053  0.49544378     0.07060
H162        H  0.69853580  0.29185676  0.51381367     0.06900
C163        C  0.71405718  0.76745701  0.49422169     0.03940
C164        C  0.72416081  0.72606712  0.49420960    -0.12210
C165        C  0.76480744  0.71493914  0.48825426     0.01440
C166        C  0.79296394  0.74473180  0.48023696    -0.10730
C167        C  0.78338505  0.78466366  0.48501473     0.03930
C168        C  0.74445085  0.79565418  0.49271266    -0.10160
H169        H  0.70156393  0.70355278  0.49952308     0.09530
H170        H  0.82379206  0.73667943  0.47483660     0.07060
H171        H  0.73744007  0.82701132  0.49696622     0.06900
C172        C  0.23357172  0.71245929  0.50316379     0.03940
C173        C  0.20676939  0.74388415  0.50072681    -0.12210
C174        C  0.21972302  0.78236531  0.49356802     0.01440
C175        C  0.25968622  0.79094132  0.48953610    -0.10730
C176        C  0.28831641  0.76192863  0.49686003     0.03930
C177        C  0.27555456  0.72129003  0.50272366    -0.10160
H178        H  0.17499292  0.73819930  0.50352354     0.09530
H179        H  0.26866027  0.82168240  0.48400814     0.07060
H180        H  0.29718824  0.69776815  0.50699056     0.06900
C181        C  0.73703456  0.01071624  0.21881550     0.03940
C182        C  0.77910138  0.01068704  0.22657850    -0.12210
C183        C  0.79283867  0.01181936  0.26726044     0.01440
C184        C  0.76508214  0.01518257  0.29786510    -0.10730
C185        C  0.72485234  0.01227658  0.28991213     0.03930
C186        C  0.71105970  0.00867416  0.25115493    -0.10160
H187        H  0.80014772  0.01009915  0.20215323     0.09530
H188        H  0.77497963  0.01784233  0.32875126     0.07060
H189        H  0.67914649  0.00605430  0.24608656     0.06900
O190        O  0.38766118  0.06930798  0.50269184    -0.79320
O191        O  0.61203081  0.06684600  0.50810843    -0.80870
O192        O  0.48878088  0.11234613  0.56468814    -0.77890
O193        O  0.49998473  0.11353510  0.43867955    -0.76280
O194        O  0.49982120  0.06831368  0.38763818    -0.78070
O195        O  0.48573931  0.06574636  0.61391020    -0.79000
O196        O  0.56258741  0.11361940  0.50824543    -0.80330
O197        O  0.43782774  0.11578984  0.49993136    -0.80610
Eu198      Eu  0.49867699  0.07778023  0.50183941     2.39200
O199        O  0.54084502  0.03803655  0.46322836    -0.88120
O200        O  0.45688993  0.03741337  0.54141489    -0.91730
C201        C  0.40088624  0.10644067  0.50222654     1.02960
C202        C  0.59968685  0.10373455  0.50894616     1.02780
C203        C  0.48371846  0.10257450  0.60140163     1.02720
C204        C  0.50026578  0.10500452  0.40124983     1.00580
H205        H  0.55180698  0.05673011  0.56164905     0.30330
O206        O  0.53709686  0.03846212  0.54478171    -1.00510
H207        H  0.44193106  0.05477036  0.44253376     0.30370
O208        O  0.45833911  0.03811316  0.45947611    -1.03050
O209        O  0.61101607  0.92811469  0.50643856    -0.80280
O210        O  0.38753543  0.92601134  0.49971255    -0.79820
O211        O  0.55758440  0.00773085  0.61952652    -0.78250
O212        O  0.56855768  0.00146946  0.39337448    -0.81590
O213        O  0.43522836  0.98877451  0.38976889    -0.79450
O214        O  0.43055871  0.99273059  0.61326509    -0.78100
O215        O  0.50167386  0.88281988  0.56484695    -0.79620
O216        O  0.50729412  0.88425271  0.43848992    -0.81540
O217        O  0.50078377  0.92841278  0.61550364    -0.78280
O218        O  0.50793004  0.92980974  0.38803009    -0.80960
O219        O  0.60780679  0.00543559  0.57306822    -0.76690
O220        O  0.38390469  0.99105399  0.56301246    -0.76730
O221        O  0.38525757  0.98934096  0.43667560    -0.76370
O222        O  0.61452503  0.00165163  0.44456490    -0.79870
O223        O  0.56094802  0.88162165  0.50358501    -0.79290
O224        O  0.43852183  0.88088411  0.49764110    -0.77620
Eu225      Eu  0.58003715  0.99823643  0.50676414     2.39770
Eu226      Eu  0.41702375  0.99721039  0.49998914     2.39570
Eu227      Eu  0.49580397  0.99726843  0.58405700     2.38400
Eu228      Eu  0.50117799  0.99865778  0.41984882     2.39880
Eu229      Eu  0.49983197  0.91872212  0.50186070     2.39790
O230        O  0.45999566  0.95840275  0.46024538    -0.92030
O231        O  0.53901511  0.95706622  0.54599165    -0.90930
C232        C  0.59783320  0.89125697  0.50474798     1.03140
C233        C  0.40135613  0.88945620  0.49827734     1.01850
C234        C  0.59416662  0.00980647  0.60865436     1.01240
C235        C  0.60433161  0.00245116  0.40759792     1.03260
C236        C  0.39857098  0.98602123  0.40103930     1.02170
C237        C  0.39468670  0.99082936  0.59985003     1.01020
C238        C  0.50224676  0.89182665  0.60214781     1.01080
C239        C  0.50983255  0.89308001  0.40124801     1.03700
H240        H  0.44093930  0.93858437  0.55726005     0.31070
O241        O  0.45703262  0.95669565  0.54159299    -1.04200
H242        H  0.55867300  0.94287279  0.44733354     0.33120
O243        O  0.54107622  0.95937071  0.46295891    -1.06760
C244        C  0.26756387  0.02710205  0.79119057     0.03940
C245        C  0.22569506  0.02615203  0.78157788    -0.12210
C246        C  0.21363451  0.01699428  0.74128818     0.01440
C247        C  0.24275032  0.00562716  0.71417745    -0.10730
C248        C  0.28261287  0.00988318  0.72327927     0.03930
C249        C  0.29501925  0.02160896  0.76071045    -0.10160
H250        H  0.20367847  0.03231029  0.80428121     0.09530
H251        H  0.23438654  0.99668779  0.68401908     0.07060
H252        H  0.32679891  0.02381458  0.76681268     0.06900
C253        C  0.72682706  0.99270810  0.78214324     0.03940
C254        C  0.70564962  0.02296670  0.76296412    -0.12210
C255        C  0.71526287  0.03414802  0.72439647     0.01440
C256        C  0.75263744  0.02561822  0.70892398    -0.10730
C257        C  0.77626782  0.99593877  0.72614494     0.03930
C258        C  0.76343760  0.97902086  0.76393297    -0.10160
H259        H  0.67663105  0.03153086  0.77437081     0.09530
H260        H  0.75955621  0.03616314  0.67900235     0.07060
H261        H  0.78037968  0.95525192  0.77775920     0.06900
C262        C  0.26891025  0.01077746  0.21485696     0.03940
C263        C  0.23010832  0.01881422  0.23095291    -0.12210
C264        C  0.21961736  0.00251297  0.26928719     0.01440
C265        C  0.24797079  0.98027382  0.28999231    -0.10730
C266        C  0.28611298  0.97593903  0.27551617     0.03930
C267        C  0.29567773  0.98821943  0.23735874    -0.10160
H268        H  0.20921177  0.03724582  0.21458899     0.09530
H269        H  0.24212520  0.97112825  0.32064110     0.07060
H270        H  0.32617321  0.98457112  0.22720945     0.06900
O271        O  0.57154697  0.00446178  0.11825325    -0.79320
O272        O  0.57066427  0.99656303  0.89300827    -0.80870
O273        O  0.61437164  0.93646789  0.00607746    -0.77890
O274        O  0.61849498  0.06224988  0.00261782    -0.76280
O275        O  0.57427601  0.11417389  0.00553371    -0.78070
O276        O  0.56738760  0.88696860  0.00959893    -0.79000
O277        O  0.61663936  0.99519286  0.94317136    -0.80330
O278        O  0.61708998  0.00175012  0.06769465    -0.80610
Eu279      Eu  0.58028243  0.00072380  0.00595387     2.39200
O280        O  0.54146662  0.04310925  0.96607697    -0.88120
O281        O  0.54065438  0.96198742  0.04955715    -0.91730
C282        C  0.60828076  0.00320620  0.10484160     1.02960
C283        C  0.60738942  0.99373705  0.90587860     1.02780
C284        C  0.60427339  0.89944309  0.00749533     1.02720
C285        C  0.61050616  0.09968076  0.00357082     1.00580
H286        H  0.55555412  0.94325362  0.95003410     0.30330
O287        O  0.53931939  0.96072662  0.96609838    -1.00510
H288        H  0.55988215  0.06016993  0.06152027     0.30370
O289        O  0.54181941  0.04417799  0.04559583    -1.03050
O290        O  0.43298509  0.01138871  0.89078216    -0.80280
O291        O  0.42923662  0.01599359  0.11526482    -0.79820
O292        O  0.49299686  0.89172573  0.94303067    -0.78250
O293        O  0.51276204  0.11855929  0.94104081    -0.81590
O294        O  0.50425545  0.12031032  0.06966968    -0.79450
O295        O  0.48847131  0.89526660  0.07671949    -0.78100
O296        O  0.38685301  0.93910534  0.00665360    -0.79620
O297        O  0.38477540  0.06420878  0.00460175    -0.81540
O298        O  0.43199724  0.88820909  0.00982526    -0.78280
O299        O  0.43011187  0.11525595  0.00742214    -0.80960
O300        O  0.49719741  0.93892354  0.89330546    -0.76690
O301        O  0.49031172  0.94472408  0.12416195    -0.76730
O302        O  0.50811178  0.07109045  0.11652480    -0.76370
O303        O  0.51708736  0.06805197  0.89486182    -0.79870
O304        O  0.38630646  0.00659544  0.94007735    -0.79290
O305        O  0.38520833  0.01155810  0.06324339    -0.77620
Eu306      Eu  0.50184063  0.00353329  0.92391389     2.39770
Eu307      Eu  0.50055822  0.00597797  0.08778921     2.39570
Eu308      Eu  0.49955322  0.92125225  0.00898471     2.38400
Eu309      Eu  0.50231083  0.08667603  0.00524784     2.39880
Eu310      Eu  0.42240277  0.00375030  0.00292392     2.39790
O311        O  0.46158301  0.04522046  0.04453121    -0.92030
O312        O  0.46185120  0.96183558  0.96456422    -0.90930
C313        C  0.39606522  0.01107558  0.90332917     1.03140
C314        C  0.39288742  0.01583206  0.10044148     1.01850
C315        C  0.49341038  0.90298532  0.90617277     1.01240
C316        C  0.51882203  0.10489438  0.90564510     1.03260
C317        C  0.50874220  0.10785474  0.10583382     1.02170
C318        C  0.48537109  0.90837140  0.11293170     1.01020
C319        C  0.39570935  0.90171266  0.00906628     1.01080
C320        C  0.39328860  0.10133233  0.00699433     1.03700
H321        H  0.44119122  0.95073607  0.06309776     0.31070
O322        O  0.46012402  0.96508511  0.04679578    -1.04200
H323        H  0.44584828  0.06328543  0.94623429     0.33120
O324        O  0.46204112  0.04624047  0.96298272    -1.06760
C325        C  0.51964794  0.23611704  0.28977625     0.03940
C326        C  0.54692968  0.21467414  0.26692702    -0.12210
C327        C  0.54569056  0.21812766  0.22553778     0.01440
C328        C  0.52711807  0.25150787  0.20897895    -0.10730
C329        C  0.51198807  0.28191447  0.23278854     0.03930
C330        C  0.50376225  0.27240658  0.27362971    -0.10160
H331        H  0.56302178  0.19032443  0.28068286     0.09530
H332        H  0.52494975  0.25489224  0.17679080     0.07060
H333        H  0.48589931  0.29200342  0.29191834     0.06900
C334        C  0.49171240  0.77439035  0.28201612     0.03940
C335        C  0.46151431  0.79897244  0.26759000    -0.12210
C336        C  0.44431198  0.79061426  0.23118594     0.01440
C337        C  0.44216803  0.75084200  0.21932039    -0.10730
C338        C  0.47459185  0.72576036  0.22772697     0.03930
C339        C  0.49962243  0.73755516  0.26122739    -0.10160
H340        H  0.45837912  0.82898261  0.27948607     0.09530
H341        H  0.42061761  0.74297922  0.19654514     0.07060
H342        H  0.52591981  0.72058346  0.26894325     0.06900
C343        C  0.50242049  0.76856888  0.72095358     0.03940
C344        C  0.48906764  0.79505210  0.74998208    -0.12210
C345        C  0.47948767  0.78217224  0.78782322     0.01440
C346        C  0.47827251  0.74212136  0.79652527    -0.10730
C347        C  0.49167619  0.71361946  0.76929259     0.03930
C348        C  0.50438129  0.72683471  0.73051816    -0.10160
H349        H  0.48907530  0.82692834  0.74401335     0.09530
H350        H  0.47079468  0.73364749  0.82695850     0.07060
H351        H  0.51582348  0.70570834  0.70898899     0.06900
C352        C  0.48222549  0.22316967  0.72259879     0.03940
C353        C  0.46926976  0.26137158  0.73699081    -0.12210
C354        C  0.48821658  0.27843426  0.77160807     0.01440
C355        C  0.51796545  0.25680882  0.79116860    -0.10730
C356        C  0.52684740  0.21833611  0.77950472     0.03930
C357        C  0.51339585  0.20411236  0.74277784    -0.10160
H358        H  0.44490258  0.27676112  0.72239961     0.09530
H359        H  0.52924702  0.26730663  0.81983533     0.07060
H360        H  0.52179787  0.17407235  0.73405537     0.06900
O361        O  0.99415559  0.43867860  0.11744572    -0.79320
O362        O  0.99544148  0.43609033  0.88731226    -0.80870
O363        O  0.93411729  0.38880320  0.00099109    -0.77890
O364        O  0.05669521  0.38619115  0.00150941    -0.76280
O365        O  0.10846148  0.43026282  0.00670767    -0.78070
O366        O  0.88498433  0.43523249  0.99230626    -0.79000
O367        O  0.99283754  0.39025767  0.93781878    -0.80330
O368        O  0.99559741  0.39213216  0.06730815    -0.80610
Eu369      Eu  0.99606905  0.42526335  0.00194907     2.39200
O370        O  0.03924308  0.46488307  0.96395227    -0.88120
O371        O  0.95452799  0.46566635  0.04068574    -0.91730
C372        C  0.99557109  0.40200011  0.10454395     1.02960
C373        C  0.99259269  0.39940183  0.90040541     1.02780
C374        C  0.89759949  0.39831865  0.99556660     1.02720
C375        C  0.09410677  0.39377632  0.00379990     1.00580
H376        H  0.94154080  0.44920291  0.94067239     0.30330
O377        O  0.95817844  0.46533995  0.95794859    -1.00510
H378        H  0.05055162  0.44677888  0.06264065     0.30370
O379        O  0.03543223  0.46421561  0.04532526    -1.03050
O380        O  0.00833092  0.57501275  0.88823041    -0.80280
O381        O  0.99511686  0.57772047  0.11349790    -0.79820
O382        O  0.89178853  0.51684786  0.93097462    -0.78250
O383        O  0.11415743  0.49440878  0.94427218    -0.81590
O384        O  0.10632059  0.50068657  0.07677075    -0.79450
O385        O  0.87942014  0.50212592  0.05803405    -0.78100
O386        O  0.93679937  0.61973546  0.00191958    -0.79620
O387        O  0.06302418  0.61873594  0.00705706    -0.81540
O388        O  0.88544427  0.57459084  0.00006764    -0.78280
O389        O  0.11268344  0.57226679  0.01163240    -0.80960
O390        O  0.93931465  0.51415181  0.88231997    -0.76690
O391        O  0.92642961  0.49992206  0.10786544    -0.76730
O392        O  0.05390567  0.50377696  0.12010259    -0.76370
O393        O  0.06842115  0.49318788  0.89270878    -0.79870
O394        O  0.00397041  0.62016779  0.93906854    -0.79290
O395        O  0.00036522  0.62204831  0.06218561    -0.77620
Eu396      Eu  0.00206431  0.50497941  0.91894052     2.39770
Eu397      Eu  0.99345249  0.50629625  0.08335338     2.39570
Eu398      Eu  0.91654750  0.50553179  0.99717842     2.38400
Eu399      Eu  0.08056058  0.50225418  0.00759835     2.39880
Eu400      Eu  0.00001975  0.58369093  0.00121609     2.39790
O401        O  0.03793669  0.54398629  0.04459102    -0.92030
O402        O  0.96032928  0.54498484  0.95852624    -0.90930
C403        C  0.00698637  0.61164272  0.90185796     1.03140
C404        C  0.99795429  0.61438862  0.09959466     1.01850
C405        C  0.90319556  0.51876892  0.89447621     1.01240
C406        C  0.10385150  0.49036714  0.90736492     1.03260
C407        C  0.09107104  0.50195137  0.11225602     1.02170
C408        C  0.89041781  0.49909657  0.09465736     1.01020
C409        C  0.89944752  0.61096178  0.00188358     1.01080
C410        C  0.09985768  0.60925982  0.01083482     1.03700
H411        H  0.93880463  0.56320324  0.05624109     0.31070
O412        O  0.95549691  0.54607274  0.04028405    -1.04200
H413        H  0.06094387  0.55974350  0.94757914     0.33120
O414        O  0.04293986  0.54323530  0.96294490    -1.06760
C415        C  0.76477885  0.48455572  0.28681594     0.03940
C416        C  0.78941560  0.46719298  0.25817927    -0.12210
C417        C  0.77961910  0.46884810  0.21814224     0.01440
C418        C  0.74184179  0.47984826  0.20616540    -0.10730
C419        C  0.71499106  0.49622792  0.23297422     0.03930
C420        C  0.72664555  0.49975266  0.27424988    -0.10160
H421        H  0.81955482  0.45834119  0.26611231     0.09530
H422        H  0.73476184  0.47985099  0.17442599     0.07060
H423        H  0.70727954  0.51434017  0.29546649     0.06900
C424        C  0.22519844  0.51746105  0.28165749     0.03940
C425        C  0.26152127  0.51020068  0.25966475    -0.12210
C426        C  0.27014351  0.53366624  0.22392342     0.01440
C427        C  0.24136062  0.56213813  0.21334518    -0.10730
C428        C  0.20273006  0.55700661  0.22714731     0.03930
C429        C  0.19881759  0.54555954  0.26642583    -0.10160
H430        H  0.28072036  0.48584291  0.26852580     0.09530
H431        H  0.24602202  0.58264787  0.18887997     0.07060
H432        H  0.17008989  0.54891031  0.28069856     0.06900
C433        C  0.22572794  0.49801979  0.72419230     0.03940
C434        C  0.20561257  0.47513277  0.75287729    -0.12210
C435        C  0.22290995  0.46752916  0.78978459     0.00960
C436        C  0.26334604  0.47296204  0.79518979    -0.10730
C437        C  0.28596854  0.49305295  0.76649485     0.03930
C438        C  0.26685174  0.50723850  0.73101534    -0.10160
H439        H  0.17409827  0.46869171  0.74909876     0.09530
H440        H  0.27610116  0.46653762  0.82441730     0.07060
H441        H  0.28313498  0.52578494  0.71013643     0.06900
C442        C  0.77617888  0.50110471  0.72617974     0.03940
C443        C  0.79752511  0.52571684  0.75233497    -0.12210
C444        C  0.77954089  0.54307142  0.78563991     0.01440
C445        C  0.73874617  0.53761202  0.79077825    -0.10730
C446        C  0.71939999  0.50579714  0.77177869     0.03930
C447        C  0.73736747  0.48821271  0.73752060    -0.10160
H448        H  0.82910078  0.52998409  0.74700798     0.09530
H449        H  0.72370864  0.55310523  0.81473729     0.07060
H450        H  0.72184019  0.46543077  0.72051962     0.06900
C451        C  0.21135403  0.26738568  0.01163493     0.03940
C452        C  0.22295921  0.22554557  0.01111958    -0.12210
C453        C  0.26463560  0.21539466  0.01763349     0.01440
C454        C  0.29186001  0.24656773  0.01785413    -0.10730
C455        C  0.27966480  0.28513119  0.02129698     0.03930
C456        C  0.24020352  0.29514586  0.02270951    -0.10160
H457        H  0.20102627  0.20242652  0.00555857     0.09530
H458        H  0.32371847  0.24098258  0.01607827     0.07060
H459        H  0.23267904  0.32654043  0.02584820     0.06900
O460        O  0.49499418  0.38731382  0.07132910    -0.79320
O461        O  0.50335879  0.61224901  0.06504850    -0.80870
O462        O  0.55911444  0.50251345  0.11720648    -0.77890
O463        O  0.43326528  0.50574486  0.11338215    -0.76280
O464        O  0.38752582  0.50518793  0.06336136    -0.78070
O465        O  0.61025505  0.50123571  0.07229857    -0.79000
O466        O  0.49900291  0.56562560  0.11415457    -0.80330
O467        O  0.49266605  0.43805941  0.11714106    -0.80610
Eu468      Eu  0.49688861  0.50092843  0.07989489     2.39200
O469        O  0.45810416  0.54107913  0.03722415    -0.88120
O470        O  0.53766712  0.45802022  0.04227820    -0.91730
C471        C  0.49343579  0.40076203  0.10793105     1.02960
C472        C  0.50206425  0.60219650  0.10263171     1.02780
C473        C  0.59642708  0.50282849  0.10884828     1.02720
C474        C  0.39702247  0.50674862  0.10121942     1.00580
H475        H  0.55602515  0.55647365  0.05639970     0.30330
O476        O  0.53939073  0.53965557  0.03978263    -1.00510
H477        H  0.43843957  0.44514425  0.05587346     0.30370
O478        O  0.45613925  0.46047469  0.03904029    -1.03050
O479        O  0.50409836  0.61176436  0.92983211    -0.80280
O480        O  0.49389770  0.38310007  0.93417613    -0.79820
O481        O  0.61126325  0.56191723  0.99810406    -0.78250
O482        O  0.38606670  0.56229072  0.99787867    -0.81590
O483        O  0.38265327  0.44083214  0.99437301    -0.79450
O484        O  0.60970242  0.43240804  0.00217220    -0.78100
O485        O  0.56430363  0.49106145  0.88569209    -0.79620
O486        O  0.44097339  0.50222515  0.87885675    -0.81540
O487        O  0.61357650  0.49364521  0.93277009    -0.78280
O488        O  0.38962417  0.50458094  0.92346127    -0.80960
O489        O  0.56421454  0.61020083  0.99270283    -0.76690
O490        O  0.56063216  0.38438665  0.00147510    -0.76730
O491        O  0.42893672  0.39072184  0.00059052    -0.76370
O492        O  0.43439791  0.61069857  0.99734572    -0.79870
O493        O  0.50883210  0.56125305  0.88401481    -0.79290
O494        O  0.49691674  0.43189627  0.88644297    -0.77620
Eu495      Eu  0.50018728  0.57980883  0.99739082     2.39770
Eu496      Eu  0.49639294  0.41730611  0.00157985     2.39570
Eu497      Eu  0.58019880  0.49725652  0.00177804     2.38400
Eu498      Eu  0.41896449  0.50095902  0.99477479     2.39880
Eu499      Eu  0.50124116  0.49720490  0.91875728     2.39790
O500        O  0.45868984  0.45748453  0.95760869    -0.92030
O501        O  0.54125876  0.53751225  0.95958998    -0.90930
C502        C  0.50767516  0.59847659  0.89353908     1.03140
C503        C  0.49459662  0.39495460  0.89701125     1.01850
C504        C  0.60037195  0.59840176  0.99417572     1.01240
C505        C  0.39791313  0.59840656  0.99779868     1.03260
C506        C  0.39326505  0.40453128  0.99801832     1.02170
C507        C  0.59718095  0.39620433  0.00109732     1.01020
C508        C  0.60117107  0.49141582  0.89559088     1.01080
C509        C  0.40370782  0.50448925  0.88695710     1.03700
H510        H  0.55501452  0.43922004  0.94523935     0.31070
O511        O  0.53895182  0.45659927  0.96156707    -1.04200
H512        H  0.44502055  0.55748195  0.93742964     0.33120
O513        O  0.46039771  0.54055261  0.95504781    -1.06760
C514        C  0.73453776  0.78649578  0.00081221     0.03940
C515        C  0.77597504  0.77906952  0.00801986    -0.12210
C516        C  0.78783289  0.73949086  0.01945573     0.01440
C517        C  0.75817359  0.71238762  0.03012766    -0.10730
C518        C  0.71998465  0.71744948  0.01516130     0.03930
C519        C  0.70946299  0.75372658  0.99774639    -0.10160
H520        H  0.79783366  0.80264796  0.00459013     0.09530
H521        H  0.76627760  0.68434312  0.04412421     0.07060
H522        H  0.67976297  0.75790786  0.98552150     0.06900
C523        C  0.26657672  0.78881977  0.00123539     0.03940
C524        C  0.22705713  0.77729545  0.01386092    -0.12210
C525        C  0.21627621  0.73550351  0.01415129     0.01440
C526        C  0.24471653  0.70777508  0.00308756    -0.10730
C527        C  0.28235251  0.71944378  0.99202692     0.03930
C528        C  0.29272005  0.75893130  0.98951546    -0.10160
H529        H  0.20588655  0.79966412  0.02325467     0.09530
H530        H  0.23800479  0.67602161  0.00456660     0.07060
H531        H  0.32339658  0.76599541  0.98185746     0.06900
C532        C  0.73735807  0.21423508  0.99118817     0.03940
C533        C  0.77876604  0.22560031  0.99014465    -0.12210
C534        C  0.78913572  0.26650495  0.98146099     0.01440
C535        C  0.75869558  0.29374690  0.97471952    -0.10730
C536        C  0.71952915  0.28282658  0.97958744     0.03930
C537        C  0.70875525  0.24367749  0.98620751    -0.10160
H538        H  0.80175470  0.20384856  0.99633084     0.09530
H539        H  0.76551701  0.32512299  0.96970782     0.07060
H540        H  0.67732656  0.23636533  0.98935402     0.06900
C541        C  0.62769296  0.36630619  0.99673723    -0.04530
C542        C  0.62616710  0.34038217  0.96348333    -0.01640
C543        C  0.65766475  0.31438191  0.95668877     0.03350
C544        C  0.68957149  0.31341486  0.98382558    -0.04520
C545        C  0.69141352  0.33940109  0.01696009    -0.01630
C546        C  0.66089671  0.36681791  0.02276361     0.03340
C547        C  0.59360591  0.34156943  0.93487592     0.37990
C548        C  0.72408797  0.33740679  0.04558951     0.37980
C549        C  0.66400672  0.39555636  0.05526323     0.36410
C550        C  0.65791175  0.28902357  0.92149259     0.36410
N551        N  0.66684505  0.41850872  0.08102025    -0.38410
N552        N  0.65876898  0.26868788  0.89358196    -0.38410
N553        N  0.75001666  0.33605978  0.06848661    -0.37860
N554        N  0.56835088  0.34142421  0.91125013    -0.37860
C555        C  0.36687367  0.62786287  0.99792184    -0.04530
C556        C  0.36874949  0.65892860  0.02590221    -0.01640
C557        C  0.34183833  0.69019002  0.02287521     0.03350
C558        C  0.31327022  0.68972929  0.99166416    -0.04520
C559        C  0.30980459  0.65725157  0.96530312    -0.01630
C560        C  0.33493917  0.62479658  0.97045180     0.03340
C561        C  0.39378059  0.65526418  0.06118501     0.37990
C562        C  0.27981386  0.65681534  0.93375108     0.37980
C563        C  0.32499958  0.58728123  0.95096453     0.36410
C564        C  0.34221150  0.72142444  0.05314857     0.36410
N565        N  0.31590211  0.55714297  0.93655771    -0.38410
N566        N  0.34259807  0.74625377  0.07722913    -0.38410
N567        N  0.25597207  0.65640176  0.90861410    -0.37860
N568        N  0.41213733  0.65142100  0.09026866    -0.37860
C569        C  0.63154783  0.62918640  0.99454680    -0.04530
C570        C  0.67203874  0.61855014  0.99012854    -0.01640
C571        C  0.70174758  0.64669196  0.99846118     0.03350
C572        C  0.69114702  0.68444683  0.01427373    -0.04520
C573        C  0.65081179  0.69334962  0.02144942    -0.01630
C574        C  0.62154591  0.66856296  0.00573755     0.03340
C575        C  0.68364604  0.57932599  0.97558641     0.37990
C576        C  0.63902192  0.72835582  0.04424109     0.37980
C577        C  0.58293789  0.68587509  0.99667238     0.36410
C578        C  0.74267505  0.63548804  0.99081496     0.36410
N579        N  0.55291696  0.70027224  0.98763650    -0.38410
N580        N  0.77458420  0.62401457  0.98508578    -0.38410
N581        N  0.62915829  0.75603832  0.06234048    -0.37860
N582        N  0.69290859  0.54789100  0.96478262    -0.37860
C583        C  0.30837233  0.31609433  0.01540839    -0.04530
C584        C  0.31839734  0.34095969  0.04756758    -0.01640
C585        C  0.34518835  0.37183554  0.04102780     0.03350
C586        C  0.36159889  0.37679103  0.00276465    -0.04520
C587        C  0.34874198  0.35440057  0.96993031    -0.01630
C588        C  0.32347000  0.32229477  0.97653789     0.03340
C589        C  0.30199314  0.33405764  0.08716919     0.37990
C590        C  0.35898138  0.36617679  0.92952175     0.37980
C591        C  0.31404823  0.29526157  0.94379726     0.36410
C592        C  0.35403294  0.39978869  0.07278723     0.36410
N593        N  0.30728538  0.27340357  0.91780118    -0.38410
N594        N  0.35982353  0.42270171  0.09793350    -0.38410
N595        N  0.36596762  0.37572927  0.89704689    -0.37860
N596        N  0.28895218  0.32841796  0.11868266    -0.37860
C597        C  0.68432389  0.48962258  0.79434968    -0.04530
C598        C  0.69142866  0.46558345  0.82860419    -0.01640
C599        C  0.66481688  0.46607165  0.86169054     0.03350
C600        C  0.62976100  0.48948612  0.86041471    -0.04520
C601        C  0.61998640  0.50832551  0.82308257    -0.01630
C602        C  0.64763672  0.50941287  0.79118244     0.03340
C603        C  0.72788170  0.44251550  0.83084400     0.37990
C604        C  0.58128556  0.52630064  0.81618496     0.37980
C605        C  0.63927398  0.53273152  0.75548595     0.36410
C606        C  0.67351271  0.44207086  0.89676234     0.36410
N607        N  0.63266273  0.55138650  0.72706233    -0.38410
N608        N  0.68055265  0.42284743  0.92470035    -0.38410
N609        N  0.55023746  0.53968292  0.80933186    -0.37860
N610        N  0.75704158  0.42421320  0.83253303    -0.37860
C611        C  0.32734503  0.50256126  0.78026494    -0.04530
C612        C  0.33374189  0.53863947  0.80081467    -0.01640
C613        C  0.35691632  0.53946331  0.83654811     0.03350
C614        C  0.37663777  0.50461567  0.85051633    -0.04520
C615        C  0.37652148  0.47111019  0.82450120    -0.01630
C616        C  0.35194125  0.46997953  0.79001461     0.03340
C617        C  0.31603588  0.57480392  0.78495359     0.37990
C618        C  0.40139745  0.43715970  0.83282656     0.37980
C619        C  0.34926799  0.43397314  0.76596672     0.36410
C620        C  0.35997471  0.57665705  0.85777772     0.36410
N621        N  0.34711401  0.40527532  0.74678380    -0.38410
N622        N  0.35984288  0.60772554  0.87268963    -0.38410
N623        N  0.42111794  0.40946201  0.83778757    -0.37860
N624        N  0.30225739  0.60375174  0.77203540    -0.37860
C625        C  0.30280433  0.52481094  0.19268652    -0.04530
C626        C  0.29473955  0.52517270  0.15017117    -0.01640
C627        C  0.32422674  0.51526254  0.12172407     0.03350
C628        C  0.36452524  0.51054730  0.13313162    -0.04520
C629        C  0.37319400  0.51100191  0.17527551    -0.01630
C630        C  0.34264049  0.51708492  0.20433574     0.03340
C631        C  0.25701478  0.53779222  0.13296633     0.37990
C632        C  0.41356395  0.50503073  0.18984981     0.37980
C633        C  0.35313362  0.51813375  0.24648828     0.36410
C634        C  0.31193166  0.50995085  0.08014753     0.36410
N635        N  0.36167328  0.51900346  0.28007324    -0.38410
N636        N  0.30164429  0.50554067  0.04732347    -0.38410
N637        N  0.44563958  0.50029264  0.20182155    -0.37860
N638        N  0.22860944  0.54897219  0.11673654    -0.37860
C639        C  0.67705577  0.50987812  0.21288016    -0.04530
C640        C  0.68021053  0.53765545  0.18076061    -0.01640
C641        C  0.65493631  0.53481605  0.14654384     0.03350
C642        C  0.62416966  0.50582397  0.14481392    -0.04520
C643        C  0.61710837  0.48270705  0.18002375    -0.01630
C644        C  0.64389730  0.48399655  0.21307747     0.03340
C645        C  0.71219317  0.56693767  0.18154824     0.37990
C646        C  0.58240521  0.45707915  0.18280490     0.37980
C647        C  0.63898106  0.45654859  0.24631514     0.36410
C648        C  0.66029368  0.56232208  0.11344494     0.36410
N649        N  0.63515046  0.43462206  0.27282896    -0.38410
N650        N  0.66455271  0.58437277  0.08709766    -0.38410
N651        N  0.55428180  0.43736476  0.18638453    -0.37860
N652        N  0.73778770  0.59021171  0.18224805    -0.37860
C653        C  0.87198122  0.64631896  0.00551364    -0.04530
C654        C  0.86985488  0.66756586  0.04207712    -0.01640
C655        C  0.84843514  0.70398922  0.04485987     0.03350
C656        C  0.82696128  0.71910898  0.01167924    -0.04520
C657        C  0.83102889  0.69901031  0.97446292    -0.01630
C658        C  0.85298038  0.66282085  0.97153165     0.03340
C659        C  0.88745735  0.65046052  0.07779027     0.37990
C660        C  0.80878245  0.71324552  0.93999775     0.37980
C661        C  0.85400187  0.64124394  0.93394684     0.36410
C662        C  0.84590519  0.72468717  0.08283539     0.36410
N663        N  0.85454246  0.62394312  0.90400757    -0.38410
N664        N  0.84400169  0.74134487  0.11308908    -0.38410
N665        N  0.79075038  0.72443400  0.91262044    -0.37860
N666        N  0.90109740  0.63683496  0.10653614    -0.37860
C667        C  0.87015985  0.36255292  0.99186890    -0.04530
C668        C  0.86254321  0.34542398  0.95392572    -0.01640
C669        C  0.84302341  0.30776208  0.95039083     0.03350
C670        C  0.82902560  0.28702928  0.98468591    -0.04520
C671        C  0.84018611  0.30216978  0.02255321    -0.01630
C672        C  0.86042604  0.33941965  0.02604427     0.03340
C673        C  0.87383915  0.36715852  0.91827715     0.37990
C674        C  0.82807821  0.28064082  0.05820651     0.37980
C675        C  0.86951825  0.35474912  0.06529355     0.36410
C676        C  0.83414564  0.29157579  0.91112377     0.36410
N677        N  0.87570991  0.36693246  0.09699552    -0.38410
N678        N  0.82707895  0.27855354  0.87981131    -0.38410
N679        N  0.81836602  0.26348439  0.08664665    -0.37860
N680        N  0.88231274  0.38481752  0.88979501    -0.37860
C681        C  0.12783194  0.64493168  0.01468708    -0.04530
C682        C  0.12544630  0.67717425  0.98692062    -0.01640
C683        C  0.14945847  0.71201575  0.99111320     0.03350
C684        C  0.17675147  0.71575024  0.02301555    -0.04520
C685        C  0.17559487  0.68589521  0.05346415    -0.01630
C686        C  0.15178206  0.65074340  0.04913247     0.03340
C687        C  0.09922589  0.67442509  0.95270680     0.37990
C688        C  0.20215427  0.68976461  0.08759001     0.37980
C689        C  0.15141063  0.62087182  0.08054010     0.36410
C690        C  0.14856756  0.74286410  0.96057758     0.36410
N691        N  0.15074250  0.59709450  0.10569019    -0.38410
N692        N  0.14788870  0.76750134  0.93626509    -0.38410
N693        N  0.22355322  0.69279475  0.11468395    -0.37860
N694        N  0.07849743  0.67356042  0.92507891    -0.37860
C695        C  0.12124814  0.35706493  0.00184048    -0.04530
C696        C  0.11099456  0.31975843  0.02058109    -0.01640
C697        C  0.13844523  0.28715640  0.02151575     0.03350
C698        C  0.17314398  0.28804843  0.99803679    -0.04520
C699        C  0.17724085  0.32107865  0.97127948    -0.01630
C700        C  0.15488531  0.35665264  0.97660621     0.03340
C701        C  0.07171495  0.31338611  0.03717206     0.37990
C702        C  0.20698988  0.31967812  0.94002351     0.37980
C703        C  0.16726091  0.39276773  0.95617996     0.36410
C704        C  0.13114469  0.25273489  0.04671245     0.36410
N705        N  0.17833790  0.42160636  0.94063658    -0.38410
N706        N  0.12540020  0.22506450  0.06668574    -0.38410
N707        N  0.22981464  0.31922148  0.91419853    -0.37860
N708        N  0.03989390  0.30709460  0.04889230    -0.37860
C709        C  0.87122542  0.52835044  0.86594604    -0.04530
C710        C  0.83256781  0.51393851  0.87444967    -0.01640
C711        C  0.79985549  0.53093904  0.85547302     0.03350
C712        C  0.80543717  0.55349138  0.82026168    -0.04520
C713        C  0.84338387  0.57035406  0.81312501    -0.01630
C714        C  0.87630936  0.55816317  0.83634905     0.03340
C715        C  0.82589483  0.48121881  0.90243221     0.37990
C716        C  0.84833276  0.59938792  0.78124984     0.37980
C717        C  0.91481309  0.57658029  0.82990919     0.36410
C718        C  0.76122417  0.52679511  0.87407505     0.36410
N719        N  0.94544808  0.59152547  0.82462801    -0.38410
N720        N  0.73087479  0.52422440  0.89012787    -0.38410
N721        N  0.85234341  0.62242550  0.75572242    -0.37860
N722        N  0.82025641  0.45519922  0.92455588    -0.37860
C723        C  0.19689294  0.46982335  0.82474942    -0.04530
C724        C  0.16956139  0.43894899  0.83264911    -0.01640
C725        C  0.13830603  0.44568827  0.85951819     0.03350
C726        C  0.13584847  0.48272371  0.87948410    -0.04520
C727        C  0.16476580  0.51248340  0.87384907    -0.01630
C728        C  0.19486243  0.50644677  0.84591569     0.03340
C729        C  0.17399496  0.40050402  0.81325934     0.37990
C730        C  0.16241781  0.55015021  0.89548278     0.37980
C731        C  0.22170482  0.53938889  0.83746825     0.36410
C732        C  0.10945373  0.41433213  0.86738312     0.36410
N733        N  0.24201211  0.56676214  0.83183600    -0.38410
N734        N  0.08671617  0.38905819  0.87365335    -0.38410
N735        N  0.16055582  0.58005748  0.91272340    -0.37860
N736        N  0.17817032  0.36976638  0.79806441    -0.37860
C737        C  0.11768127  0.50494161  0.14696941    -0.04530
C738        C  0.15685588  0.49120543  0.14593022    -0.01640
C739        C  0.18296326  0.50330552  0.17637212     0.03350
C740        C  0.17312588  0.53753884  0.20013245    -0.04520
C741        C  0.13242271  0.54735406  0.20343362    -0.01630
C742        C  0.10467808  0.52552729  0.18113682     0.03340
C743        C  0.16908214  0.46202984  0.11630984     0.37990
C744        C  0.11863270  0.57768213  0.23092145     0.37980
C745        C  0.06706344  0.51448784  0.19913602     0.36410
C746        C  0.21592863  0.47684462  0.18516622     0.36410
N747        N  0.03776000  0.50357955  0.21378294    -0.38410
N748        N  0.24078450  0.45358174  0.19089278    -0.38410
N749        N  0.10781427  0.60174341  0.25315676    -0.37860
N750        N  0.17891365  0.43878197  0.09275142    -0.37860
C751        C  0.81116138  0.47289300  0.18855969    -0.04530
C752        C  0.83815308  0.50540344  0.19216630    -0.01640
C753        C  0.86330597  0.51475181  0.16059374     0.03350
C754        C  0.86003346  0.49324584  0.12462821    -0.04520
C755        C  0.83123182  0.46277556  0.11985125    -0.01630
C756        C  0.80848652  0.45097495  0.15272408     0.03340
C757        C  0.83924682  0.53117634  0.22708349     0.37990
C758        C  0.82367029  0.44458655  0.08115896     0.37980
C759        C  0.78150639  0.41706310  0.14952016     0.36410
C760        C  0.89170718  0.54756826  0.16485030     0.36410
N761        N  0.75992895  0.39010845  0.14714736    -0.38410
N762        N  0.91444661  0.57335610  0.16887118    -0.38410
N763        N  0.81635895  0.43066395  0.05029662    -0.37860
N764        N  0.84167019  0.55279346  0.25394654    -0.37860
C765        C  0.47752483  0.31621998  0.79327843    -0.04530
C766        C  0.45367755  0.31259108  0.82791269    -0.01640
C767        C  0.46319023  0.33384042  0.86345459     0.03350
C768        C  0.49154586  0.36522353  0.86287373    -0.04520
C769        C  0.51256739  0.37198997  0.82652323    -0.01630
C770        C  0.50592830  0.34746033  0.79248136     0.03340
C771        C  0.41768184  0.28880806  0.82633475     0.37990
C772        C  0.54393891  0.40178209  0.82485114     0.37980
C773        C  0.53031764  0.35249590  0.75705806     0.36410
C774        C  0.44473023  0.32203640  0.90073017     0.36410
N775        N  0.54979198  0.35643382  0.72881963    -0.38410
N776        N  0.43105678  0.31145632  0.93067062    -0.38410
N777        N  0.56940748  0.42505886  0.82290435    -0.37860
N778        N  0.38752767  0.27192271  0.82555540    -0.37860
C779        C  0.49548156  0.67265502  0.78764138    -0.04530
C780        C  0.53374684  0.65850332  0.79887498    -0.01640
C781        C  0.53858476  0.63439634  0.83373254     0.03350
C782        C  0.50577889  0.62701636  0.85919552    -0.04520
C783        C  0.46842593  0.64239180  0.84852486    -0.01630
C784        C  0.46227885  0.65927313  0.81037703     0.03340
C785        C  0.56834904  0.67099785  0.77627233     0.37990
C786        C  0.43926141  0.64816543  0.87977687     0.37980
C787        C  0.42215183  0.66968758  0.79786786     0.36410
C788        C  0.57791305  0.62139765  0.84605745     0.36410
N789        N  0.39014726  0.67800029  0.78793279    -0.38410
N790        N  0.60935086  0.61129396  0.85615668    -0.38410
N791        N  0.41815267  0.65484446  0.90622000    -0.37860
N792        N  0.59602172  0.68097965  0.75822712    -0.37860
C793        C  0.48537497  0.69431108  0.19584651    -0.04530
C794        C  0.48192049  0.70268325  0.15363413    -0.01640
C795        C  0.49372265  0.67471656  0.12437672     0.03350
C796        C  0.50198124  0.63471229  0.13481139    -0.04520
C797        C  0.50644070  0.62603047  0.17652201    -0.01630
C798        C  0.49884475  0.65559489  0.20642553     0.03340
C799        C  0.46309306  0.73837385  0.13767118     0.37990
C800        C  0.52023990  0.58700322  0.18929974     0.37980
C801        C  0.50211216  0.64485801  0.24834256     0.36410
C802        C  0.49505417  0.68780764  0.08285941     0.36410
N803        N  0.50467370  0.63613685  0.28177628    -0.38410
N804        N  0.49504012  0.69911711  0.05015187    -0.38410
N805        N  0.53144825  0.55599712  0.19968924    -0.37860
N806        N  0.44679995  0.76479694  0.12241423    -0.37860
C807        C  0.49670142  0.37215413  0.14265480    -0.04530
C808        C  0.46560234  0.36650267  0.17099157    -0.01640
C809        C  0.47005023  0.33880789  0.20319019     0.03350
C810        C  0.50740510  0.32117597  0.21090831    -0.04520
C811        C  0.54026777  0.33394717  0.18740036    -0.01630
C812        C  0.53421788  0.35550038  0.15158827     0.03340
C813        C  0.42959557  0.38983546  0.16839328     0.37990
C814        C  0.58047629  0.32316063  0.19943678     0.37980
C815        C  0.56715753  0.36123779  0.12433558     0.36410
C816        C  0.43628694  0.32826521  0.22791993     0.36410
N817        N  0.59336387  0.36524706  0.10236555    -0.38410
N818        N  0.40927300  0.31992508  0.24770448    -0.38410
N819        N  0.61246917  0.31476765  0.20934331    -0.37860
N820        N  0.40089017  0.40880847  0.16869779    -0.37860
C821        C  0.71890174  0.17385317  0.99883834    -0.04530
C822        C  0.69782185  0.16852076  0.03517774    -0.01640
C823        C  0.66244783  0.14499574  0.03666058     0.03350
C824        C  0.64693577  0.12652985  0.00183826    -0.04520
C825        C  0.67058278  0.12803650  0.96669926    -0.01630
C826        C  0.70615592  0.15132794  0.96532318     0.03340
C827        C  0.71066750  0.19053769  0.07035292     0.37990
C828        C  0.65691210  0.10771536  0.93084789     0.37980
C829        C  0.72818805  0.15479213  0.92827420     0.36410
C830        C  0.64247300  0.13954259  0.07443152     0.36410
N831        N  0.74591633  0.15753607  0.89876809    -0.38410
N832        N  0.62740515  0.13535184  0.10515503    -0.38410
N833        N  0.64563070  0.09220453  0.90198492    -0.37860
N834        N  0.72074125  0.20830919  0.09833769    -0.37860
C835        C  0.36080888  0.87316174  0.00872775    -0.04530
C836        C  0.33731021  0.86585072  0.04311947    -0.01640
C837        C  0.30127962  0.84316991  0.04044017     0.03350
C838        C  0.28705315  0.82915532  0.00299613    -0.04520
C839        C  0.30884870  0.84072044  0.96834153    -0.01630
C840        C  0.34750680  0.85749614  0.97206534     0.03340
C841        C  0.35215756  0.87810692  0.08188237     0.37990
C842        C  0.29421224  0.82925751  0.92905925     0.37980
C843        C  0.37636829  0.85180405  0.94052592     0.36410
C844        C  0.28034788  0.83175532  0.07653321     0.36410
N845        N  0.40007554  0.84572924  0.91624236    -0.38410
N846        N  0.26364860  0.82255262  0.10535301    -0.38410
N847        N  0.28254710  0.82015317  0.89771529    -0.37860
N848        N  0.36358021  0.88754088  0.11316417    -0.37860
C849        C  0.63881197  0.87054940  0.00579166    -0.04530
C850        C  0.65597437  0.85502672  0.04126060    -0.01640
C851        C  0.69240572  0.83341276  0.04015600     0.03350
C852        C  0.71186680  0.82522874  0.00341840    -0.04520
C853        C  0.69551290  0.84208866  0.96819154    -0.01630
C854        C  0.65975260  0.86486173  0.96942839     0.03340
C855        C  0.63707312  0.86257284  0.07942419     0.37990
C856        C  0.71458943  0.83412139  0.93021694     0.37980
C857        C  0.64357284  0.88116066  0.93269323     0.36410
C858        C  0.70867818  0.81689783  0.07688576     0.36410
N859        N  0.63043032  0.89358413  0.90318333    -0.38410
N860        N  0.72166365  0.80352099  0.10608358    -0.38410
N861        N  0.72986067  0.82777976  0.89990784    -0.37860
N862        N  0.62297613  0.86921847  0.11023919    -0.37860
C863        C  0.28588744  0.17557766  0.02257038    -0.04530
C864        C  0.31659235  0.17348354  0.05236977    -0.01640
C865        C  0.35320199  0.15373462  0.04454020     0.03350
C866        C  0.35674961  0.12796317  0.01137554    -0.04520
C867        C  0.32128409  0.12169764  0.98797844    -0.01630
C868        C  0.28805992  0.14797302  0.99099456     0.03340
C869        C  0.31214217  0.19590577  0.08923827     0.37990
C870        C  0.31646146  0.08624057  0.96379709     0.37980
C871        C  0.25646163  0.14681110  0.96135739     0.36410
C872        C  0.38695133  0.15965418  0.07112372     0.36410
N873        N  0.23127917  0.14583931  0.93759196    -0.38410
N874        N  0.41417850  0.16501935  0.09183651    -0.38410
N875        N  0.31044411  0.05695442  0.94643923    -0.37860
N876        N  0.30856945  0.21385902  0.11857291    -0.37860
C877        C  0.52415481  0.13350091  0.87356333    -0.04530
C878        C  0.49446349  0.13469333  0.84404213    -0.01640
C879        C  0.49314537  0.16736193  0.81921228     0.03350
C880        C  0.52826561  0.18903625  0.81184802    -0.04520
C881        C  0.56034824  0.18603153  0.83875315    -0.01630
C882        C  0.55587248  0.16153855  0.87275101     0.03340
C883        C  0.46473496  0.10356566  0.83903108     0.37990
C884        C  0.59639039  0.20886173  0.83205490     0.37980
C885        C  0.58068086  0.16845315  0.90747377     0.36410
C886        C  0.45461909  0.18463594  0.81098750     0.36410
N887        N  0.59930334  0.17653629  0.93552908    -0.38410
N888        N  0.42374498  0.19922617  0.80673967    -0.38410
N889        N  0.62521858  0.22669470  0.82544429    -0.37860
N890        N  0.44209476  0.07812194  0.83300961    -0.37860
C891        C  0.47992510  0.81108632  0.82035421    -0.04530
C892        C  0.50930453  0.80758259  0.85068160    -0.01640
C893        C  0.51253191  0.83712830  0.87979845     0.03350
C894        C  0.48927833  0.87191893  0.87625582    -0.04520
C895        C  0.46201231  0.87666367  0.84426123    -0.01630
C896        C  0.45544332  0.84501492  0.81793512     0.03340
C897        C  0.53798577  0.77503673  0.85081005     0.37990
C898        C  0.44203015  0.91435607  0.83692150     0.37980
C899        C  0.42423767  0.84769804  0.78774083     0.36410
C900        C  0.54139114  0.83238693  0.91204766     0.36410
N901        N  0.39952219  0.84972972  0.76356475    -0.38410
N902        N  0.56413432  0.82788672  0.93777403    -0.38410
N903        N  0.42701616  0.94457311  0.82962455    -0.37860
N904        N  0.56092124  0.74928536  0.85101721    -0.37860
C905        C  0.47497660  0.87926268  0.14381563    -0.04530
C906        C  0.44327563  0.88624100  0.17078856    -0.01640
C907        C  0.43123788  0.85579852  0.19721187     0.03350
C908        C  0.45415734  0.82084973  0.20045455    -0.04520
C909        C  0.49000002  0.81767191  0.17789718    -0.01630
C910        C  0.49713469  0.84401437  0.14649326     0.03340
C911        C  0.42272259  0.92421052  0.17161990     0.37990
C912        C  0.52109031  0.78885098  0.18649775     0.37980
C913        C  0.52705026  0.83408802  0.11675017     0.36410
C914        C  0.39632322  0.86102916  0.22214072     0.36410
N915        N  0.54970457  0.82495131  0.09245067    -0.38410
N916        N  0.36850675  0.86525197  0.24203034    -0.38410
N917        N  0.54756675  0.76726148  0.19142495    -0.37860
N918        N  0.40594705  0.95425204  0.17361043    -0.37860
C919        C  0.51951628  0.13666948  0.13747852    -0.04530
C920        C  0.51388542  0.12578475  0.17819388    -0.01640
C921        C  0.53309100  0.14739692  0.20836985     0.03350
C922        C  0.55286993  0.18342442  0.19909773    -0.04520
C923        C  0.56297046  0.19125077  0.15900472    -0.01630
C924        C  0.54407846  0.16999936  0.12812552     0.03340
C925        C  0.49004338  0.09127586  0.18993252     0.37990
C926        C  0.59123909  0.22288039  0.14975439     0.37980
C927        C  0.55016546  0.18317679  0.08715468     0.36410
C928        C  0.53600589  0.12965780  0.24783391     0.36410
N929        N  0.55498500  0.19413902  0.05466297    -0.38410
N930        N  0.53914638  0.11399563  0.27854283    -0.38410
N931        N  0.61377105  0.24791252  0.14189401    -0.37860
N932        N  0.47191195  0.06354559  0.19995232    -0.37860
C933        C  0.28627103  0.02487101  0.17599991    -0.04530
C934        C  0.28801110  0.99698237  0.14462566    -0.01640
C935        C  0.32122593  0.99604586  0.11857896     0.03350
C936        C  0.35587844  0.01998559  0.12627506    -0.04520
C937        C  0.35155188  0.05139140  0.15416952    -0.01630
C938        C  0.31608592  0.05490484  0.17714167     0.03340
C939        C  0.25623276  0.96771385  0.14054172     0.37990
C940        C  0.38176773  0.08216459  0.15695742     0.37980
C941        C  0.30901196  0.09065905  0.20020123     0.36410
C942        C  0.31776603  0.97211835  0.08266957     0.36410
N943        N  0.30333287  0.12038605  0.21683606    -0.38410
N944        N  0.31321580  0.95459939  0.05318120    -0.38410
N945        N  0.40512420  0.10754436  0.15932096    -0.37860
N946        N  0.23095482  0.94429159  0.13736107    -0.37860
C947        C  0.64168282  0.98707428  0.87657480    -0.04530
C948        C  0.63545299  0.96536155  0.84080789    -0.01640
C949        C  0.66739318  0.95800863  0.81403890     0.03350
C950        C  0.70534592  0.97680190  0.81891714    -0.04520
C951        C  0.71254785  0.99562212  0.85604108    -0.01630
C952        C  0.68190928  0.99887756  0.88538013     0.03340
C953        C  0.59639255  0.94848245  0.83193028     0.37990
C954        C  0.75143668  0.01328168  0.86330946     0.37980
C955        C  0.69259213  0.01475765  0.92433217     0.36410
C956        C  0.66053076  0.92894469  0.78285298     0.36410
N957        N  0.70168385  0.02685986  0.95551449    -0.38410
N958        N  0.65164110  0.90391497  0.76063443    -0.38410
N959        N  0.78250046  0.02736923  0.86901039    -0.37860
N960        N  0.56543729  0.93488155  0.82459027    -0.37860
C961        C  0.36093196  0.01658731  0.87526555    -0.04530
C962        C  0.33553983  0.98378979  0.86655382    -0.01640
C963        C  0.29877956  0.98890495  0.84611475     0.03350
C964        C  0.28730020  0.02675919  0.83156667    -0.04520
C965        C  0.31073323  0.06017368  0.84306040    -0.01630
C966        C  0.34676267  0.05528155  0.86529774     0.03340
C967        C  0.34784604  0.94389212  0.87655170     0.37990
C968        C  0.29829210  0.09960424  0.83037698     0.37980
C969        C  0.36777637  0.09029100  0.87991977     0.36410
C970        C  0.27442747  0.95429375  0.83616893     0.36410
N971        N  0.38392986  0.11839322  0.89213196    -0.38410
N972        N  0.25508456  0.92672009  0.82813244    -0.38410
N973        N  0.28820940  0.13108794  0.82031224    -0.37860
N974        N  0.35679187  0.91123558  0.88265360    -0.37860
C975        C  0.50178450  0.14130441  0.37364521    -0.04530
C976        C  0.52621120  0.17490641  0.38382014    -0.01640
C977        C  0.52752456  0.20960634  0.35937962     0.03350
C978        C  0.50390171  0.21246535  0.32464928    -0.04520
C979        C  0.47700768  0.18065976  0.31618296    -0.01630
C980        C  0.47720273  0.14482762  0.33928006     0.03340
C981        C  0.55301587  0.17322534  0.41776577     0.37990
C982        C  0.45167498  0.18343168  0.28098712     0.37980
C983        C  0.45488103  0.11056141  0.32507042     0.36410
C984        C  0.55571216  0.24146062  0.36819125     0.36410
N985        N  0.43816313  0.08317218  0.31207991    -0.38410
N986        N  0.57832396  0.26674919  0.37511428    -0.38410
N987        N  0.43151987  0.18575693  0.25289257    -0.37860
N988        N  0.57487740  0.17324907  0.44455532    -0.37860
C989        C  0.51528220  0.85779499  0.37273687    -0.04530
C990        C  0.50377973  0.81789562  0.38371461    -0.01640
C991        C  0.50253007  0.78679176  0.35478759     0.03350
C992        C  0.51530101  0.79359294  0.31533871    -0.04520
C993        C  0.53493379  0.83041438  0.30724722    -0.01630
C994        C  0.53353761  0.86265411  0.33486986     0.03340
C995        C  0.49206577  0.80801640  0.42430434     0.37990
C996        C  0.55434267  0.83634241  0.26908524     0.37980
C997        C  0.55164509  0.90059621  0.32413362     0.36410
C998        C  0.48494738  0.74836950  0.36462872     0.36410
N999        N  0.56625936  0.93076556  0.31551400    -0.38410
N1000       N  0.47083324  0.71774200  0.37238905    -0.38410
N1001       N  0.57089518  0.84242852  0.23938599    -0.37860
N1002       N  0.48292117  0.79968284  0.45662823    -0.37860
C1003       C  0.47455298  0.13642880  0.63048861    -0.04530
C1004       C  0.45872992  0.12834493  0.66889055    -0.01640
C1005       C  0.45065692  0.15992580  0.69571913     0.03350
C1006       C  0.46477762  0.19931000  0.68832912    -0.04520
C1007       C  0.47639027  0.20834124  0.64897304    -0.01630
C1008       C  0.47850058  0.17777292  0.61951455     0.03340
C1009       C  0.44852681  0.08781443  0.68087713     0.37990
C1010       C  0.48705459  0.24916166  0.63907470     0.37980
C1011       C  0.48375739  0.18990760  0.57819345     0.36410
C1012       C  0.42453085  0.15154954  0.72893020     0.36410
N1013       N  0.48735990  0.19992030  0.54523428    -0.38410
N1014       N  0.40167631  0.14152770  0.75279594    -0.38410
N1015       N  0.49545821  0.28179459  0.63122524    -0.37860
N1016       N  0.44029326  0.05568872  0.69080050    -0.37860
C1017       C  0.50579838  0.85673221  0.63049327    -0.04530
C1018       C  0.48479497  0.82027647  0.62298401    -0.01640
C1019       C  0.48773419  0.78749246  0.64982129     0.03350
C1020       C  0.51403633  0.78907690  0.68267799    -0.04520
C1021       C  0.54010603  0.82251382  0.68576302    -0.01630
C1022       C  0.53358575  0.85728175  0.66243003     0.03340
C1023       C  0.45892036  0.81630337  0.58842310     0.37990
C1024       C  0.57092636  0.82250397  0.71639314     0.37980
C1025       C  0.55570693  0.89346198  0.67158048     0.36410
C1026       C  0.46179881  0.75303617  0.64513330     0.36410
N1027       N  0.57305706  0.92236282  0.67945617    -0.38410
N1028       N  0.44106281  0.72556145  0.64145380    -0.38410
N1029       N  0.59546529  0.82235982  0.74084068    -0.37860
N1030       N  0.43886943  0.81198994  0.56052515    -0.37860
C1031       C  0.36901728  0.98244190  0.36994977    -0.04530
C1032       C  0.35864250  0.01703050  0.34919934    -0.01640
C1033       C  0.33194748  0.01440570  0.31752575     0.03350
C1034       C  0.31741315  0.97651499  0.30548042    -0.04520
C1035       C  0.32492043  0.94243947  0.32883717    -0.01630
C1036       C  0.34852229  0.94639957  0.36318098     0.03340
C1037       C  0.37008655  0.05570785  0.36501003     0.37990
C1038       C  0.30559671  0.90466791  0.31963421     0.37980
C1039       C  0.34341650  0.91831935  0.39553063     0.36410
C1040       C  0.31514322  0.05108600  0.30180652     0.36410
N1041       N  0.33566579  0.89763248  0.42208422    -0.38410
N1042       N  0.30120321  0.08089618  0.29152664    -0.38410
N1043       N  0.29015221  0.87454728  0.31236709    -0.37860
N1044       N  0.37826755  0.08634063  0.37864821    -0.37860
C1045       C  0.62331238  0.01686302  0.63944886    -0.04530
C1046       C  0.62642135  0.05446180  0.65828771    -0.01640
C1047       C  0.65768734  0.06142409  0.68544731     0.03350
C1048       C  0.68251775  0.02946572  0.69606871    -0.04520
C1049       C  0.67556374  0.99074690  0.68051018    -0.01630
C1050       C  0.64877366  0.98554161  0.64947344     0.03340
C1051       C  0.59780433  0.08557649  0.64965908     0.37990
C1052       C  0.69475388  0.95576953  0.69714112     0.37980
C1053       C  0.64832641  0.94830899  0.62726820     0.36410
C1054       C  0.66404680  0.10067728  0.70262697     0.36410
N1055       N  0.64915155  0.91904074  0.60901156    -0.38410
N1056       N  0.66919769  0.13207040  0.71621898    -0.38410
N1057       N  0.70987985  0.92750502  0.71002685    -0.37860
N1058       N  0.57439715  0.11011027  0.64353843    -0.37860
C1059       C  0.36335876  0.99123501  0.62921847    -0.04530
C1060       C  0.36604590  0.96680372  0.66358326    -0.01640
C1061       C  0.33875743  0.97218952  0.69450898     0.03350
C1062       C  0.31152140  0.00396882  0.69199699    -0.04520
C1063       C  0.31023974  0.02926488  0.65846983    -0.01630
C1064       C  0.33364634  0.02064585  0.62560835     0.03340
C1065       C  0.39624050  0.93596001  0.66690583     0.37990
C1066       C  0.28761263  0.06610797  0.65866349     0.37980
C1067       C  0.32722845  0.04287870  0.58874074     0.36410
C1068       C  0.33893549  0.94562340  0.72890827     0.36410
N1069       N  0.32084091  0.06029275  0.55949229    -0.38410
N1070       N  0.33897512  0.92459731  0.75641977    -0.38410
N1071       N  0.27146223  0.09653071  0.65755267    -0.37860
N1072       N  0.42023838  0.91134638  0.66971393    -0.37860
C1073       C  0.64434621  0.00533216  0.13235639    -0.04530
C1074       C  0.65016638  0.03869609  0.15745665    -0.01640
C1075       C  0.68756517  0.04562742  0.17596918     0.03350
C1076       C  0.71582924  0.01456845  0.17928823    -0.04520
C1077       C  0.71109550  0.98153000  0.15374861    -0.01630
C1078       C  0.67782728  0.97949716  0.12726798     0.03340
C1079       C  0.61812637  0.06619309  0.16444621     0.37990
C1080       C  0.74034061  0.94982665  0.15462449     0.37980
C1081       C  0.68086040  0.95403807  0.09262719     0.36410
C1082       C  0.69736129  0.08459524  0.19208128     0.36410
N1083       N  0.68570899  0.93578051  0.06374803    -0.38410
N1084       N  0.70608010  0.11610588  0.20340839    -0.38410
N1085       N  0.76363110  0.92441711  0.15539857    -0.37860
N1086       N  0.59258247  0.08806980  0.17127725    -0.37860
C1087       C  0.69639538  0.01180439  0.32253903    -0.04530
C1088       C  0.66673456  0.04140539  0.32411821    -0.01640
C1089       C  0.63604886  0.03781914  0.35178902     0.03350
C1090       C  0.63649809  0.00596598  0.37922326    -0.04520
C1091       C  0.66880834  0.97920183  0.38085076    -0.01630
C1092       C  0.69782939  0.98090871  0.35117433     0.03340
C1093       C  0.66833747  0.07643420  0.29861710     0.37990
C1094       C  0.67335869  0.95106347  0.41361287     0.37980
C1095       C  0.72836287  0.95031598  0.34969388     0.36410
C1096       C  0.60606454  0.06886933  0.35425720     0.36410
N1097       N  0.75255680  0.92580781  0.34881295    -0.38410
N1098       N  0.58288177  0.09422975  0.35631143    -0.38410
N1099       N  0.67841733  0.92954942  0.44025394    -0.37860
N1100       N  0.66855774  0.10527066  0.27955893    -0.37860
C1101       C  0.32928274  0.77979153  0.50152709    -0.04530
C1102       C  0.35015892  0.79085758  0.46656739    -0.01640
C1103       C  0.37374424  0.82627479  0.46553150     0.03350
C1104       C  0.37421269  0.85323760  0.49844070    -0.04520
C1105       C  0.35571137  0.84057001  0.53425441    -0.01630
C1106       C  0.33589994  0.80298615  0.53636470     0.03340
C1107       C  0.34498491  0.76701256  0.43073954     0.37990
C1108       C  0.35735221  0.86600240  0.56922084     0.37980
C1109       C  0.31996396  0.78880923  0.57404128     0.36410
C1110       C  0.39531356  0.83618343  0.42933825     0.36410
N1111       N  0.30749448  0.77714444  0.60411878    -0.38410
N1112       N  0.41153018  0.84448057  0.39997151    -0.38410
N1113       N  0.35826995  0.88638884  0.59712191    -0.37860
N1114       N  0.34075270  0.74799652  0.40212284    -0.37860
C1115       C  0.62554594  0.85613005  0.50212451    -0.04530
C1116       C  0.63381443  0.83216673  0.53616008    -0.01640
C1117       C  0.65855885  0.79799934  0.53323676     0.03350
C1118       C  0.67348632  0.78575732  0.49587145    -0.04520
C1119       C  0.65972204  0.80579114  0.46113987    -0.01630
C1120       C  0.63598473  0.84061566  0.46420724     0.03340
C1121       C  0.61555962  0.84125625  0.57404199     0.37990
C1122       C  0.67253515  0.79193572  0.42217082     0.37980
C1123       C  0.62156691  0.85990154  0.42812347     0.36410
C1124       C  0.67045060  0.77643144  0.56895981     0.36410
N1125       N  0.61022938  0.87520153  0.39920408    -0.38410
N1126       N  0.67995441  0.75916132  0.59743989    -0.38410
N1127       N  0.68284790  0.78084994  0.39111825    -0.37860
N1128       N  0.60087373  0.84713677  0.60464833    -0.37860
C1129       C  0.68252932  0.20563448  0.49872240    -0.04530
C1130       C  0.68018467  0.17459925  0.46961493    -0.01640
C1131       C  0.65749720  0.13958138  0.47636304     0.03350
C1132       C  0.62967462  0.13779641  0.50777198    -0.04520
C1133       C  0.62708240  0.17171707  0.53344883    -0.01630
C1134       C  0.65465427  0.20428115  0.53026192     0.03340
C1135       C  0.70100024  0.17865433  0.43190426     0.37990
C1136       C  0.59675798  0.17317213  0.56393181     0.37980
C1137       C  0.65431490  0.23609633  0.55956627     0.36410
C1138       C  0.66318503  0.10538487  0.45051084     0.36410
N1139       N  0.65377768  0.26160214  0.58291090    -0.38410
N1140       N  0.66910193  0.07798208  0.43040580    -0.38410
N1141       N  0.57263995  0.17568405  0.58836715    -0.37860
N1142       N  0.71650613  0.18132760  0.40119176    -0.37860
C1143       C  0.32966385  0.21535825  0.52231539    -0.04530
C1144       C  0.34875613  0.19425623  0.55402552    -0.01640
C1145       C  0.36702791  0.15661133  0.54729597     0.03350
C1146       C  0.37380914  0.14241206  0.50803432    -0.04520
C1147       C  0.36457400  0.16939567  0.47630276    -0.01630
C1148       C  0.34014193  0.20377771  0.48296696     0.03340
C1149       C  0.34711711  0.21027492  0.59433903     0.37990
C1150       C  0.38267795  0.16413252  0.43751355     0.37980
C1151       C  0.32482379  0.22610163  0.44916420     0.36410
C1152       C  0.37892998  0.13256542  0.58129096     0.36410
N1153       N  0.31259768  0.24378647  0.42201082    -0.38410
N1154       N  0.38732946  0.11318417  0.60869259    -0.38410
N1155       N  0.39824480  0.16221391  0.40676651    -0.37860
N1156       N  0.34591264  0.22306767  0.62646868    -0.37860
C1157       C  0.81229810  0.98474704  0.70080700    -0.04530
C1158       C  0.80720042  0.96740141  0.66192177    -0.01640
C1159       C  0.83558394  0.97318257  0.63097645     0.03350
C1160       C  0.87074030  0.99531491  0.63773418    -0.04520
C1161       C  0.87803846  0.00911663  0.67760427    -0.01630
C1162       C  0.84896179  0.00433270  0.70832416     0.03340
C1163       C  0.77345723  0.94242016  0.65192269     0.37990
C1164       C  0.91510363  0.02928214  0.68752209     0.37980
C1165       C  0.85599788  0.02140687  0.74761425     0.36410
C1166       C  0.82878858  0.95483240  0.59205376     0.36410
N1167       N  0.86153576  0.03496052  0.77900365    -0.38410
N1168       N  0.82297128  0.94008236  0.56125786    -0.38410
N1169       N  0.94474737  0.04491709  0.69612862    -0.37860
N1170       N  0.74928861  0.92112209  0.63917301    -0.37860
C1171       C  0.17348925  0.02200653  0.72154437    -0.04530
C1172       C  0.17233027  0.05023700  0.69008655    -0.01640
C1173       C  0.15593306  0.03988785  0.65233538     0.03350
C1174       C  0.12852761  0.00788433  0.64902886    -0.04520
C1175       C  0.12274666  0.98385942  0.68388197    -0.01630
C1176       C  0.14739128  0.98899417  0.71845841     0.03340
C1177       C  0.18991604  0.08925692  0.69650470     0.37990
C1178       C  0.09265377  0.95285783  0.68413558     0.37980
C1179       C  0.14678374  0.95986787  0.75051590     0.36410
C1180       C  0.16879204  0.06145781  0.61714810     0.36410
N1181       N  0.14637707  0.93662580  0.77617203    -0.38410
N1182       N  0.18023402  0.07833486  0.58925393    -0.38410
N1183       N  0.06819552  0.92848965  0.68548345    -0.37860
N1184       N  0.20264774  0.12089412  0.70243220    -0.37860
C1185       C  0.18265305  0.00980143  0.29377761    -0.04530
C1186       C  0.16210409  0.97559424  0.30817305    -0.01640
C1187       C  0.14315943  0.97592768  0.34594878     0.03350
C1188       C  0.13980482  0.01157461  0.36820238    -0.04520
C1189       C  0.15703673  0.04684512  0.35225738    -0.01630
C1190       C  0.17895855  0.04576963  0.31578150     0.03340
C1191       C  0.16316245  0.93887184  0.28512796     0.37990
C1192       C  0.15182605  0.08439549  0.37305515     0.37980
C1193       C  0.19854512  0.08154729  0.30130686     0.36410
C1194       C  0.12829180  0.93888544  0.36284379     0.36410
N1195       N  0.21386440  0.11029471  0.28965211    -0.38410
N1196       N  0.11656426  0.90928226  0.37630991    -0.38410
N1197       N  0.14745786  0.11457736  0.38928985    -0.37860
N1198       N  0.16389151  0.90962776  0.26670496    -0.37860
C1199       C  0.83460040  0.00773644  0.28274654    -0.04530
C1200       C  0.84379605  0.97183499  0.30310028    -0.01640
C1201       C  0.86691029  0.97233098  0.33879679     0.03350
C1202       C  0.88360424  0.00833856  0.35346358    -0.04520
C1203       C  0.88025618  0.04272941  0.32876851    -0.01630
C1204       C  0.85508379  0.04271274  0.29444926     0.03340
C1205       C  0.82646005  0.93469807  0.28881565     0.37990
C1206       C  0.90169430  0.07876823  0.33911513     0.37980
C1207       C  0.84785035  0.07941020  0.27258640     0.36410
C1208       C  0.87300515  0.93551698  0.36031547     0.36410
N1209       N  0.84197822  0.10864326  0.25504628    -0.38410
N1210       N  0.87671941  0.90553872  0.37698192    -0.38410
N1211       N  0.91836412  0.10796483  0.34705420    -0.37860
N1212       N  0.81273677  0.90504883  0.27734715    -0.37860
C1213       C  0.19105448  0.81467660  0.49317827    -0.04530
C1214       C  0.19394008  0.84488471  0.52243487    -0.01640
C1215       C  0.16605491  0.87552153  0.52276181     0.03350
C1216       C  0.13388733  0.87433385  0.49548170    -0.04520
C1217       C  0.13052344  0.84358433  0.46669210    -0.01630
C1218       C  0.15988649  0.81429188  0.46486721     0.03340
C1219       C  0.22421859  0.84372388  0.55361315     0.37990
C1220       C  0.09715729  0.84177450  0.43885873     0.37980
C1221       C  0.15799240  0.78372414  0.43400519     0.36410
C1222       C  0.16957264  0.90694619  0.55269328     0.36410
N1223       N  0.15640343  0.75928402  0.40956760    -0.38410
N1224       N  0.17264314  0.93175054  0.57662850    -0.38410
N1225       N  0.07060168  0.83960297  0.41672844    -0.37860
N1226       N  0.24767940  0.84382742  0.57907143    -0.37860
C1227       C  0.81446431  0.81552288  0.48566622    -0.04530
C1228       C  0.84620651  0.81283115  0.51346102    -0.01640
C1229       C  0.87419019  0.84360378  0.51605230     0.03350
C1230       C  0.86927234  0.87818235  0.49257972    -0.04520
C1231       C  0.83542207  0.88266016  0.46772071    -0.01630
C1232       C  0.80965934  0.85024329  0.46213699     0.03340
C1233       C  0.84981038  0.77988881  0.54131564     0.37990
C1234       C  0.82574935  0.92071928  0.44923225     0.37980
C1235       C  0.77815167  0.85273442  0.43224774     0.36410
C1236       C  0.90661176  0.84053950  0.54501613     0.36410
N1237       N  0.75291131  0.85463125  0.40861995    -0.38410
N1238       N  0.93221903  0.83758230  0.56812252    -0.38410
N1239       N  0.81718213  0.95112996  0.43515490    -0.37860
N1240       N  0.85519803  0.75518031  0.56485003    -0.37860
C1241       C  0.87856004  0.14129768  0.49385020    -0.04530
C1242       C  0.88069955  0.17275835  0.52165958    -0.01640
C1243       C  0.85275990  0.20309404  0.51950250     0.03350
C1244       C  0.82694928  0.20477533  0.48623223    -0.04520
C1245       C  0.83053317  0.17768218  0.45457393    -0.01630
C1246       C  0.85349113  0.14362390  0.46010179     0.03340
C1247       C  0.91129540  0.17422811  0.55251957     0.37990
C1248       C  0.81234829  0.18602270  0.41608342     0.37980
C1249       C  0.85049606  0.11116083  0.43165660     0.36410
C1250       C  0.84998801  0.23053458  0.55280112     0.36410
N1251       N  0.84654814  0.08490604  0.40954175    -0.38410
N1252       N  0.85018479  0.25048283  0.58098338    -0.38410
N1253       N  0.79964133  0.19332713  0.38469192    -0.37860
N1254       N  0.93629682  0.17690043  0.57627954    -0.37860
C1255       C  0.19772609  0.18608337  0.55346971    -0.04530
C1256       C  0.16058531  0.18849913  0.57268915    -0.01640
C1257       C  0.12861824  0.16564755  0.55841455     0.03350
C1258       C  0.13536584  0.13626000  0.52887071    -0.04520
C1259       C  0.17364065  0.13076048  0.51273379    -0.01630
C1260       C  0.20439512  0.15641950  0.52385338     0.03340
C1261       C  0.15484185  0.21621476  0.60560403     0.37990
C1262       C  0.18168413  0.09921389  0.48383383     0.37980
C1263       C  0.24160220  0.15296155  0.50209995     0.36410
C1264       C  0.08891767  0.17380357  0.57326215     0.36410
N1265       N  0.27027244  0.14827211  0.48365149    -0.38410
N1266       N  0.05738711  0.18152775  0.58471431    -0.38410
N1267       N  0.18893136  0.07376985  0.46163614    -0.37860
N1268       N  0.15016694  0.23831724  0.63176115    -0.37860
C1269       C  0.99943926  0.65145431  0.12673250    -0.04530
C1270       C  0.98577907  0.69007690  0.11348507    -0.01640
C1271       C  0.98379178  0.72299209  0.14069966     0.03350
C1272       C  0.00211041  0.72057432  0.17857205    -0.04520
C1273       C  0.02557839  0.68613256  0.18614415    -0.01630
C1274       C  0.01777905  0.65041082  0.16480166     0.03340
C1275       C  0.97221860  0.69649455  0.07276632     0.37990
C1276       C  0.05119309  0.68529703  0.22130200     0.37980
C1277       C  0.02092581  0.61341445  0.18634591     0.36410
C1278       C  0.96240374  0.75898619  0.13011712     0.36410
N1279       N  0.02041400  0.58531218  0.20631760    -0.38410
N1280       N  0.94542644  0.78782875  0.12162552    -0.38410
N1281       N  0.07137497  0.68508515  0.24946998    -0.37860
N1282       N  0.96200567  0.70237100  0.04016569    -0.37860
C1283       C  0.99396608  0.88496938  0.35471015    -0.04530
C1284       C  0.96085917  0.85892115  0.35462736    -0.01640
C1285       C  0.94845460  0.84056745  0.31865194     0.03350
C1286       C  0.97641271  0.83434676  0.28733585    -0.04520
C1287       C  0.00961684  0.86044662  0.28650529    -0.01630
C1288       C  0.01543896  0.88873967  0.31800336     0.03340
C1289       C  0.94022263  0.84929773  0.39140324     0.37990
C1290       C  0.03779139  0.85842302  0.25393016     0.37980
C1291       C  0.04193300  0.92221755  0.31129302     0.36410
C1292       C  0.90867991  0.82345998  0.31580182     0.36410
N1293       N  0.06152260  0.94983381  0.30426235    -0.38410
N1294       N  0.87698220  0.80986575  0.31351854    -0.38410
N1295       N  0.06053572  0.85709175  0.22802863    -0.37860
N1296       N  0.92398706  0.84057483  0.42063002    -0.37860
C1297       C  0.98074866  0.29824348  0.81667293    -0.04530
C1298       C  0.95914385  0.33421748  0.81048669    -0.01640
C1299       C  0.96412427  0.36751852  0.83646144     0.03350
C1300       C  0.98797953  0.36449255  0.87146013    -0.04520
C1301       C  0.00518896  0.32643096  0.88021509    -0.01630
C1302       C  0.00174159  0.29395643  0.85299038     0.03340
C1303       C  0.93384287  0.33777145  0.77532345     0.37990
C1304       C  0.02912438  0.32073461  0.91593454     0.37980
C1305       C  0.02211784  0.25665503  0.86117628     0.36410
C1306       C  0.94496428  0.40501959  0.82646075     0.36410
N1307       N  0.03823506  0.22683622  0.86774983    -0.38410
N1308       N  0.92968088  0.43490789  0.81830884    -0.38410
N1309       N  0.04839641  0.31542374  0.94419875    -0.37860
N1310       N  0.91375260  0.34060586  0.74722721    -0.37860
C1311       C  0.99741132  0.12677793  0.64970286    -0.04530
C1312       C  0.96218251  0.14124134  0.66788907    -0.01640
C1313       C  0.96448684  0.16668025  0.70215203     0.03350
C1314       C  0.00167471  0.17468397  0.72098113    -0.04520
C1315       C  0.03499859  0.15249658  0.70781760    -0.01630
C1316       C  0.03347217  0.13136858  0.67119465     0.03340
C1317       C  0.92369862  0.12986475  0.65166847     0.37990
C1318       C  0.07232153  0.15527981  0.72984589     0.37980
C1319       C  0.06988993  0.11657466  0.65415139     0.36410
C1320       C  0.92898853  0.18636426  0.71650522     0.36410
N1321       N  0.09910718  0.10612028  0.63955399    -0.38410
N1322       N  0.90059728  0.20208539  0.72800514    -0.38410
N1323       N  0.10212408  0.15751999  0.74729335    -0.37860
N1324       N  0.89290812  0.12037910  0.63903980    -0.37860
C1325       C  0.01218102  0.71771712  0.82412335    -0.04530
C1326       C  0.04175866  0.68759033  0.82170266    -0.01640
C1327       C  0.03952721  0.65249263  0.84578417     0.03350
C1328       C  0.00881780  0.64777479  0.87430588    -0.04520
C1329       C  0.98295735  0.68096796  0.88046796    -0.01630
C1330       C  0.98379101  0.71471717  0.85480676     0.03340
C1331       C  0.07271907  0.69132449  0.79178507     0.37990
C1332       C  0.95558935  0.68150762  0.91369987     0.37980
C1333       C  0.95366675  0.74552017  0.85826991     0.36410
C1334       C  0.06941181  0.62163793  0.84171050     0.36410
N1335       N  0.92951835  0.76996605  0.86090915    -0.38410
N1336       N  0.09326182  0.59698150  0.83853108    -0.38410
N1337       N  0.93460795  0.68379217  0.94089097    -0.37860
N1338       N  0.09735324  0.69445855  0.76784349    -0.37860
C1339       C  0.01827827  0.82195979  0.70677351    -0.04530
C1340       C  0.05012319  0.82665817  0.67946721    -0.01640
C1341       C  0.04558336  0.84991586  0.64406801     0.03350
C1342       C  0.00952614  0.87021388  0.63584988    -0.04520
C1343       C  0.97853421  0.86759939  0.66441792    -0.01630
C1344       C  0.98279493  0.84368215  0.69931162     0.03340
C1345       C  0.08707982  0.80564936  0.68708740     0.37990
C1346       C  0.94113955  0.88794244  0.65678889     0.37980
C1347       C  0.94915282  0.83861017  0.72600828     0.36410
C1348       C  0.07835548  0.85322198  0.61629820     0.36410
N1349       N  0.92224267  0.83436086  0.74716143    -0.38410
N1350       N  0.10467149  0.85547663  0.59419629    -0.38410
N1351       N  0.91120040  0.90387681  0.65051502    -0.37860
N1352       N  0.11659060  0.78895438  0.69341064    -0.37860
C1353       C  0.13979769  0.62731212  0.50191629    -0.04530
C1354       C  0.15737289  0.63844287  0.53887950    -0.01640
C1355       C  0.19342412  0.66096946  0.53998940     0.03350
C1356       C  0.21290908  0.67249279  0.50421258    -0.04520
C1357       C  0.19739724  0.65768368  0.46757386    -0.01630
C1358       C  0.16118048  0.63552958  0.46639115     0.03340
C1359       C  0.13813662  0.62685739  0.57591671     0.37990
C1360       C  0.21735508  0.66805200  0.43057225     0.37980
C1361       C  0.14556188  0.62162283  0.42831202     0.36410
C1362       C  0.20931092  0.67472825  0.57796512     0.36410
N1363       N  0.13316028  0.61043614  0.39793229    -0.38410
N1364       N  0.22206115  0.68573918  0.60825716    -0.38410
N1365       N  0.23332855  0.67641214  0.40108970    -0.37860
N1366       N  0.12275188  0.61749702  0.60542331    -0.37860
C1367       C  0.77641209  0.33336956  0.51434232    -0.04530
C1368       C  0.80489215  0.33454548  0.54570184    -0.01640
C1369       C  0.84315611  0.35213312  0.53946895     0.03350
C1370       C  0.84942268  0.37825763  0.50673902    -0.04520
C1371       C  0.81464984  0.38754309  0.48335284    -0.01630
C1372       C  0.78051924  0.36234426  0.48425167     0.03340
C1373       C  0.79462350  0.31598999  0.58336046     0.37990
C1374       C  0.81080460  0.42526378  0.46266663     0.37980
C1375       C  0.74978472  0.36565363  0.45386026     0.36410
C1376       C  0.87527216  0.34413486  0.56724228     0.36410
N1377       N  0.72525441  0.36824462  0.42954801    -0.38410
N1378       N  0.90117391  0.33684794  0.58896929    -0.38410
N1379       N  0.80553606  0.45619881  0.44818454    -0.37860
N1380       N  0.78574224  0.30175742  0.61363080    -0.37860
C1381       C  0.13701677  0.36714438  0.50439140    -0.04530
C1382       C  0.16958431  0.37513496  0.53069397    -0.01640
C1383       C  0.20523244  0.35205153  0.52989509     0.03350
C1384       C  0.20889289  0.31854300  0.50449486    -0.04520
C1385       C  0.17653928  0.31073276  0.47774781    -0.01630
C1386       C  0.14054332  0.33348941  0.47892916     0.03340
C1387       C  0.16375981  0.40263365  0.56351242     0.37990
C1388       C  0.17901587  0.27640095  0.45142604     0.37980
C1389       C  0.10594805  0.31941541  0.45696272     0.36410
C1390       C  0.23713055  0.36062871  0.55806871     0.36410
N1391       N  0.07822525  0.30720944  0.44016479    -0.38410
N1392       N  0.26265516  0.36749005  0.58046474    -0.38410
N1393       N  0.18101100  0.24895527  0.43050499    -0.37860
N1394       N  0.15832849  0.42301796  0.59083320    -0.37860
C1395       C  0.85351196  0.62659153  0.50139547    -0.04530
C1396       C  0.82227488  0.61938252  0.47299691    -0.01640
C1397       C  0.79036031  0.64682884  0.46837101     0.03350
C1398       C  0.78312602  0.67541795  0.49814846    -0.04520
C1399       C  0.80722559  0.67424934  0.53261192    -0.01630
C1400       C  0.84459779  0.65454787  0.53191760     0.03340
C1401       C  0.81863743  0.58122592  0.45333275     0.37990
C1402       C  0.79340174  0.69457785  0.56826115     0.37980
C1403       C  0.87172699  0.66247679  0.56416522     0.36410
C1404       C  0.76450817  0.64507260  0.43361936     0.36410
N1405       N  0.89025959  0.67032153  0.59221157    -0.38410
N1406       N  0.74390110  0.64373040  0.40578694    -0.38410
N1407       N  0.78189311  0.71045082  0.59669055    -0.37860
N1408       N  0.81306091  0.54987055  0.43995989    -0.37860
C1409       C  0.20713520  0.49463706  0.31633474    -0.04530
C1410       C  0.17133139  0.47297700  0.30858913    -0.01640
C1411       C  0.13790671  0.47564338  0.33462070     0.03350
C1412       C  0.14103989  0.49533244  0.37206223    -0.04520
C1413       C  0.17965388  0.51055191  0.38285981    -0.01630
C1414       C  0.21166048  0.51105014  0.35490089     0.03340
C1415       C  0.16751408  0.45049298  0.27176500     0.37990
C1416       C  0.18683018  0.52773883  0.42205863     0.37980
C1417       C  0.24875910  0.53126724  0.36463946     0.36410
C1418       C  0.10003373  0.45899487  0.32170270     0.36410
N1419       N  0.27838549  0.54739357  0.37233916    -0.38410
N1420       N  0.06986939  0.44620383  0.31057336    -0.38410
N1421       N  0.19326830  0.54111351  0.45335993    -0.37860
N1422       N  0.16335270  0.43149012  0.24314129    -0.37860
C1423       C  0.78581634  0.49063219  0.32638419    -0.04530
C1424       C  0.80321929  0.45656950  0.34461320    -0.01640
C1425       C  0.83998170  0.45934964  0.36553196     0.03350
C1426       C  0.85904695  0.49670484  0.37119934    -0.04520
C1427       C  0.83946165  0.53141518  0.35669695    -0.01630
C1428       C  0.80281760  0.52836700  0.33512451     0.03340
C1429       C  0.78428193  0.41789593  0.33926267     0.37990
C1430       C  0.85630381  0.57055799  0.36470185     0.37980
C1431       C  0.78308170  0.56409791  0.32077252     0.36410
C1432       C  0.85804889  0.42340151  0.38165923     0.36410
N1433       N  0.76733529  0.59265018  0.30934734    -0.38410
N1434       N  0.87217636  0.39470327  0.39477456    -0.38410
N1435       N  0.86889632  0.60208767  0.37148117    -0.37860
N1436       N  0.76914454  0.38706582  0.33496968    -0.37860
C1437       C  0.13785590  0.51561176  0.63132578    -0.04530
C1438       C  0.13073705  0.52889236  0.67095781    -0.01640
C1439       C  0.16208239  0.53002839  0.69943530     0.03350
C1440       C  0.20009482  0.51383576  0.69046457    -0.04520
C1441       C  0.20887682  0.50595439  0.65013349    -0.01630
C1442       C  0.17868115  0.50929422  0.62038087     0.03340
C1443       C  0.09149059  0.54208305  0.68306039     0.37990
C1444       C  0.24856476  0.49301431  0.63925142     0.37980
C1445       C  0.19062501  0.50647695  0.57879813     0.36410
C1446       C  0.15481936  0.54679158  0.73882138     0.36410
N1447       N  0.20050297  0.50452253  0.54571556    -0.38410
N1448       N  0.14889468  0.56009032  0.77017226    -0.38410
N1449       N  0.28024400  0.48279013  0.63041708    -0.37860
N1450       N  0.06034500  0.55250164  0.69337108    -0.37860
C1451       C  0.86370248  0.49033400  0.63418910    -0.04530
C1452       C  0.83964320  0.52448603  0.63760296    -0.01640
C1453       C  0.80608048  0.52503639  0.66278219     0.03350
C1454       C  0.79736136  0.49205346  0.68781107    -0.04520
C1455       C  0.82078425  0.45716573  0.68400814    -0.01630
C1456       C  0.85381525  0.45628536  0.65728519     0.03340
C1457       C  0.85285667  0.56088697  0.61894819     0.37990
C1458       C  0.81186937  0.42291545  0.70894623     0.37980
C1459       C  0.87897275  0.42137386  0.65549166     0.36410
C1460       C  0.78270681  0.56136907  0.66599030     0.36410
N1461       N  0.89946554  0.39367855  0.65488970    -0.38410
N1462       N  0.76434263  0.59043003  0.66875439    -0.38410
N1463       N  0.80446207  0.39550479  0.72872942    -0.37860
N1464       N  0.86540161  0.58959609  0.60473244    -0.37860
C1465       C  0.99253268  0.63112931  0.36640606    -0.04530
C1466       C  0.01438497  0.66697165  0.36811799    -0.01640
C1467       C  0.00747173  0.69631999  0.33926649     0.03350
C1468       C  0.97458503  0.69220959  0.31257182    -0.04520
C1469       C  0.95217544  0.65663571  0.31179467    -0.01630
C1470       C  0.96391717  0.62473082  0.33586957     0.03340
C1471       C  0.04498724  0.67315310  0.39844288     0.37990
C1472       C  0.91691335  0.65281868  0.28663473     0.37980
C1473       C  0.94772465  0.58534449  0.32751771     0.36410
C1474       C  0.03537191  0.72958482  0.33633014     0.36410
N1475       N  0.93555837  0.55402353  0.31922912    -0.38410
N1476       N  0.05771609  0.75592364  0.33406052    -0.38410
N1477       N  0.88877762  0.64975152  0.26668973    -0.37860
N1478       N  0.06906037  0.67864441  0.42275049    -0.37860
C1479       C  0.02476142  0.36570379  0.62713673    -0.04530
C1480       C  0.04687349  0.37455224  0.66234712    -0.01640
C1481       C  0.05685045  0.34382042  0.68898836     0.03350
C1482       C  0.04006699  0.30555564  0.68381588    -0.04520
C1483       C  0.02066295  0.29590111  0.64728354    -0.01630
C1484       C  0.01465480  0.32542832  0.61836320     0.03340
C1485       C  0.05803541  0.41516015  0.67286531     0.37990
C1486       C  0.00337751  0.25673964  0.63984722     0.37980
C1487       C  0.99572826  0.31377268  0.58076758     0.36410
C1488       C  0.08194335  0.35222343  0.72352407     0.36410
N1489       N  0.98112267  0.30391284  0.55089553    -0.38410
N1490       N  0.10150219  0.35912124  0.75127141    -0.38410
N1491       N  0.98934551  0.22592632  0.63281302    -0.37860
N1492       N  0.06623413  0.44737388  0.68244451    -0.37860
C1493       C  0.97649701  0.62979918  0.63153280    -0.04530
C1494       C  0.97342899  0.61729624  0.67197242    -0.01640
C1495       C  0.97667482  0.64592745  0.70199146     0.03350
C1496       C  0.96953267  0.68654867  0.69259761    -0.04520
C1497       C  0.95895040  0.69661596  0.65307249    -0.01630
C1498       C  0.96994206  0.67076508  0.62235414     0.03340
C1499       C  0.96853972  0.57569630  0.68379912     0.37990
C1500       C  0.93973238  0.73446483  0.64390487     0.37980
C1501       C  0.97424806  0.68738764  0.58236900     0.36410
C1502       C  0.99264238  0.63267115  0.73998807     0.36410
N1503       N  0.97751817  0.70100194  0.55068767    -0.38410
N1504       N  0.00610280  0.61991675  0.76916698    -0.38410
N1505       N  0.92444534  0.76458854  0.63673293    -0.37860
N1506       N  0.96432687  0.54278904  0.69366186    -0.37860
C1507       C  0.00016409  0.36741374  0.13292840    -0.04530
C1508       C  0.96721821  0.35097496  0.15333963    -0.01640
C1509       C  0.96921474  0.31185581  0.16991766     0.03350
C1510       C  0.00600258  0.29155000  0.17285688    -0.04520
C1511       C  0.03842679  0.30724128  0.15059908    -0.01630
C1512       C  0.03603242  0.34544335  0.13239249     0.03340
C1513       C  0.93352575  0.37627575  0.16211205     0.37990
C1514       C  0.07584461  0.28568327  0.15048276     0.37980
C1515       C  0.07173839  0.36413304  0.11657528     0.36410
C1516       C  0.93323484  0.29181720  0.18279104     0.36410
N1517       N  0.10030711  0.37929857  0.10447472    -0.38410
N1518       N  0.90427607  0.27555104  0.19232045    -0.38410
N1519       N  0.10567066  0.26843435  0.15061131    -0.37860
N1520       N  0.90745758  0.39714908  0.17059440    -0.37860
C1521       C  0.00001465  0.19007282  0.29419856    -0.04530
C1522       C  0.97498951  0.19585603  0.32790884    -0.01640
C1523       C  0.97941834  0.17240060  0.36320266     0.03350
C1524       C  0.00634776  0.13995970  0.36428937    -0.04520
C1525       C  0.02804363  0.13154469  0.32852574    -0.01630
C1526       C  0.02570862  0.15697606  0.29459332     0.03340
C1527       C  0.94545701  0.22731157  0.32674885     0.37990
C1528       C  0.05350611  0.09682740  0.32591390     0.37980
C1529       C  0.05193361  0.15067103  0.26075239     0.36410
C1530       C  0.95499225  0.18097871  0.39780128     0.36410
N1531       N  0.07300424  0.14584181  0.23387527    -0.38410
N1532       N  0.93544351  0.18811085  0.42530343    -0.38410
N1533       N  0.07317391  0.06879981  0.32225435    -0.37860
N1534       N  0.92126547  0.25184997  0.32619079    -0.37860
C1535       C  0.03700954  0.32372699  0.30443861    -0.04530
C1536       C  0.99865764  0.34117708  0.30596649    -0.01640
C1537       C  0.99083740  0.37033368  0.33402202     0.03350
C1538       C  0.01923680  0.37804707  0.36360208    -0.04520
C1539       C  0.05851776  0.36368474  0.36047277    -0.01630
C1540       C  0.06739527  0.33574961  0.33079647     0.03340
C1541       C  0.96562908  0.32731019  0.28161013     0.37990
C1542       C  0.09019526  0.38072433  0.38478942     0.37980
C1543       C  0.10698182  0.31883423  0.32783265     0.36410
C1544       C  0.95474075  0.39401499  0.33071204     0.36410
N1545       N  0.13852961  0.30519683  0.32550531    -0.38410
N1546       N  0.92685626  0.41372452  0.32615286    -0.38410
N1547       N  0.11572866  0.39503047  0.40331461    -0.37860
N1548       N  0.93742052  0.31734113  0.26434769    -0.37860
loop_ 
_geom_bond_atom_site_label_1 
_geom_bond_atom_site_label_2 
_geom_bond_distance 
_geom_bond_site_symmetry_2 
_ccdc_geom_bond_type 
C1            C2   1.396       .  A
C1            C6   1.438       .  A
C1         C1510   1.510       .  S
C2            C3   1.376       .  A
C2            H7   1.087       .  S
C3            C4   1.375       .  A
C3         C1535   1.446       .  S
C4            C5   1.390       .  A
C4            H8   1.087       .  S
C5            C6   1.439       .  A
C5         C1521   1.504       .  S
C6            H9   1.082   1_455  S
O10          C21   1.289       .  A
O10         Eu46   2.442   1_455  S
O11          C22   1.289       .  A
O11         Eu45   2.435       .  S
O12          C23   1.304       .  A
O12         Eu18   2.542       .  S
O13          C24   1.309       .  A
O13         Eu18   2.568   1_455  S
O14          C24   1.284       .  A
O14         Eu48   2.433       .  S
O15          C23   1.286       .  A
O15         Eu47   2.442       .  S
O16          C22   1.279   1_455  A
O16         Eu18   2.385   1_455  S
O17          C21   1.275       .  A
O17         Eu18   2.356   1_455  S
Eu18         O28   2.343   1_655  S
Eu18         O20   2.372       .  S
Eu18         O19   2.345   1_655  S
Eu18         O26   2.360       .  S
O19         Eu48   2.362       .  S
O19         Eu45   2.366   1_455  S
O20         Eu46   2.357       .  S
O20         Eu47   2.364       .  S
C21        C1538   1.427       .  S
C22        C1465   1.452       .  S
C23        C1426   1.508       .  S
C24        C1412   1.535       .  S
H25          O26   0.966       .  S
O26         Eu47   2.353       .  S
O26         Eu45   2.343       .  S
H27          O28   0.964       .  S
O28         Eu46   2.359   1_455  S
O28         Eu48   2.329       .  S
O29          C52   1.280       .  A
O29         Eu45   2.391       .  S
O30          C53   1.281       .  A
O30         Eu46   2.400   1_455  S
O31          C54   1.282       .  A
O31         Eu47   2.423       .  S
O32          C55   1.283       .  A
O32         Eu48   2.423       .  S
O33          C56   1.293       .  A
O33         Eu48   2.470       .  S
O34          C57   1.275       .  A
O34         Eu47   2.378       .  S
O35          C58   1.298       .  A
O35         Eu49   2.507       .  S
O36          C59   1.302       .  A
O36         Eu49   2.523   1_455  S
O37          C58   1.291       .  A
O37         Eu47   2.468       .  S
O38          C59   1.283       .  A
O38         Eu48   2.434       .  S
O39          C54   1.314       .  A
O39         Eu45   2.596       .  S
O40          C57   1.321       .  A
O40         Eu46   2.621       .  S
O41          C56   1.310       .  A
O41         Eu46   2.563   1_455  S
O42          C55   1.309       .  A
O42         Eu45   2.561   1_455  S
O43          C52   1.284       .  A
O43         Eu49   2.417       .  S
O44          C53   1.286       .  A
O44         Eu49   2.428   1_455  S
Eu45         O63   2.375   1_655  S
Eu45         O51   2.361       .  S
Eu46         O50   2.372   1_655  S
Eu46         O61   2.352       .  S
Eu47         O61   2.349       .  S
Eu47         O51   2.325       .  S
Eu48         O50   2.334       .  S
Eu48         O63   2.355       .  S
Eu49         O50   2.343   1_655  S
Eu49         O61   2.361       .  S
Eu49         O63   2.355   1_655  S
Eu49         O51   2.358       .  S
C52        C1493   1.476       .  S
C53        C1479   1.476       .  S
C54        C1395   1.529       .  S
C55        C1353   1.505       .  S
C56        C1381   1.536       .  S
C57        C1370   1.526       .  S
C58        C1451   1.506       .  S
C59        C1437   1.527       .  S
H60          O61   0.965       .  S
H62          O63   0.965       .  S
C64          C65   1.432       .  A
C64          C69   1.392   1_455  A
C64        C1325   1.501       .  S
C65          C66   1.428       .  A
C65          H70   1.082       .  S
C66          C67   1.385       .  A
C66        C1339   1.505       .  S
C67          C68   1.394   1_455  A
C67          H71   1.083       .  S
C68          C69   1.386       .  A
C68        C1496   1.475       .  S
C69          H72   1.083       .  S
C73          C74   1.393   1_655  A
C73          C78   1.434       .  A
C73        C1297   1.513       .  S
C74          C75   1.388       .  A
C74          H79   1.083       .  S
C75          C76   1.381       .  A
C75        C1482   1.478       .  S
C76          C77   1.400       .  A
C76          H80   1.084       .  S
C77          C78   1.435   1_455  A
C77        C1314   1.515       .  S
C78          H81   1.082       .  S
C82          C83   1.396       .  A
C82          C87   1.443       .  A
C82        C1272   1.521   1_655  S
C83          C84   1.375       .  A
C83          H88   1.084       .  S
C84          C85   1.370       .  A
C84        C1468   1.466       .  S
C85          C86   1.399       .  A
C85          H89   1.085       .  S
C86          C87   1.446       .  A
C86        C1286   1.525       .  S
C87          H90   1.081       .  S
O91         C102   1.310       .  A
O91        Eu127   2.570       .  S
O92         C103   1.307       .  A
O92        Eu126   2.544       .  S
O93         C104   1.284       .  A
O93         Eu99   2.433       .  S
O94         C105   1.283       .  A
O94         Eu99   2.426   1_655  S
O95         C105   1.310       .  A
O95        Eu129   2.571       .  S
O96         C104   1.304       .  A
O96        Eu128   2.540       .  S
O97         C103   1.284       .  A
O97         Eu99   2.431   1_565  S
O98         C102   1.280       .  A
O98         Eu99   2.408       .  S
Eu99        O109   2.342   1_455  S
Eu99        O101   2.354       .  S
Eu99        O100   2.342   1_445  S
Eu99        O107   2.333   1_545  S
O100       Eu129   2.352   1_565  S
O100       Eu126   2.344   1_655  S
O101       Eu127   2.361       .  S
O101       Eu128   2.359       .  S
C102       C1524   1.521       .  S
C103       C1283   1.516   1_455  S
C104       C1188   1.505       .  S
C105       C1202   1.514       .  S
H106        O107   0.966       .  S
O107       Eu128   2.367   1_565  S
O107       Eu126   2.359       .  S
H108        O109   0.965       .  S
O109       Eu127   2.354   1_655  S
O109       Eu129   2.353       .  S
O110        C133   1.305       .  A
O110       Eu126   2.545       .  S
O111        C134   1.310       .  A
O111       Eu127   2.570   1_655  S
O112        C135   1.285       .  A
O112       Eu128   2.408   1_565  S
O113        C136   1.280       .  A
O113       Eu129   2.388   1_565  S
O114        C137   1.285       .  A
O114       Eu129   2.418       .  S
O115        C138   1.284       .  A
O115       Eu128   2.403       .  S
O116        C139   1.287       .  A
O116       Eu130   2.448       .  S
O117        C140   1.282       .  A
O117       Eu130   2.419   1_665  S
O118        C139   1.308       .  A
O118       Eu128   2.553       .  S
O119        C140   1.310   1_545  A
O119       Eu129   2.557       .  S
O120        C135   1.284       .  A
O120       Eu126   2.402       .  S
O121        C138   1.282       .  A
O121       Eu127   2.402       .  S
O122        C137   1.278       .  A
O122       Eu127   2.367   1_655  S
O123        C136   1.289       .  A
O123       Eu126   2.429   1_655  S
O124        C133   1.284       .  A
O124       Eu130   2.431   1_565  S
O125        C134   1.282       .  A
O125       Eu130   2.424   1_655  S
Eu126       O144   2.355   1_455  S
Eu126       O132   2.360       .  S
Eu127       O131   2.362   1_455  S
Eu127       O142   2.352       .  S
Eu128       O142   2.350       .  S
Eu128       O132   2.356   1_545  S
Eu129       O131   2.356       .  S
Eu129       O144   2.369   1_545  S
Eu130       O131   2.360   1_455  S
Eu130       O142   2.336       .  S
Eu130       O144   2.347   1_445  S
Eu130       O132   2.342   1_545  S
C133       C1342   1.509       .  S
C134       C1311   1.513       .  S
C135       C1216   1.447       .  S
C136       C1230   1.455       .  S
C137       C1241   1.434       .  S
C138       C1258   1.452       .  S
C139       C1174   1.522       .  S
C140       C1160   1.523       .  S
H141        O142   0.965       .  S
H143        O144   0.966       .  S
C145        C146   1.388       .  A
C145        C150   1.446       .  A
C145       C1384   1.523       .  S
C146        C147   1.381       .  A
C146        H151   1.085       .  S
C147        C148   1.376       .  A
C147       C1255   1.466       .  S
C148        C149   1.402       .  A
C148        H152   1.084       .  S
C149        C150   1.451       .  A
C149       C1143   1.535       .  S
C150        H153   1.081       .  S
C154        C155   1.388       .  A
C154        C159   1.442       .  A
C154       C1367   1.500       .  S
C155        C156   1.366       .  A
C155        H160   1.087       .  S
C156        C157   1.382       .  A
C156       C1244   1.442       .  S
C157        C158   1.396       .  A
C157        H161   1.086       .  S
C158        C159   1.444       .  A
C158       C1129   1.527       .  S
C159        H162   1.081       .  S
C163        C164   1.428       .  A
C163        C168   1.388       .  A
C163       C1118   1.496       .  S
C164        C165   1.430       .  A
C164        H169   1.082       .  S
C165        C166   1.397       .  A
C165       C1398   1.497       .  S
C166        C167   1.385       .  A
C166        H170   1.086       .  S
C167        C168   1.384       .  A
C167       C1227   1.465       .  S
C168        H171   1.086       .  S
C172        C173   1.388       .  A
C172        C177   1.438       .  A
C172       C1356   1.505       .  S
C173        C174   1.379       .  A
C173        H178   1.087       .  S
C174        C175   1.377       .  A
C174       C1213   1.450       .  S
C175        C176   1.389       .  A
C175        H179   1.087       .  S
C176        C177   1.438       .  A
C176       C1101   1.504       .  S
C177        H180   1.082       .  S
C181        C182   1.434       .  A
C181        C186   1.393       .  A
C181       C1076   1.503       .  S
C182        C183   1.434       .  A
C182        H187   1.082       .  S
C183        C184   1.391       .  A
C183       C1199   1.498       .  S
C184        C185   1.377       .  A
C184        H188   1.086       .  S
C185        C186   1.379       .  A
C185       C1087   1.452       .  S
C186        H189   1.086       .  S
O190        C201   1.318       .  A
O190       Eu226   2.612   1_545  S
O191        C202   1.304       .  A
O191       Eu225   2.532   1_545  S
O192        C203   1.281       .  A
O192       Eu198   2.424       .  S
O193        C204   1.283       .  A
O193       Eu198   2.426       .  S
O194        C204   1.310       .  A
O194       Eu228   2.568   1_545  S
O195        C203   1.303       .  A
O195       Eu227   2.525   1_545  S
O196        C202   1.289       .  A
O196       Eu198   2.461       .  S
O197        C201   1.280       .  A
O197       Eu198   2.410       .  S
Eu198       O208   2.360       .  S
Eu198       O200   2.353       .  S
Eu198       O199   2.339       .  S
Eu198       O206   2.333       .  S
O199       Eu228   2.363   1_545  S
O199       Eu225   2.369   1_545  S
O200       Eu226   2.343   1_545  S
O200       Eu227   2.352   1_545  S
C201       C1146   1.524       .  S
C202       C1132   1.518       .  S
C203       C1003   1.527       .  S
C204        C975   1.526       .  S
H205        O206   0.965       .  S
O206       Eu227   2.354   1_545  S
O206       Eu225   2.353   1_545  S
H207        O208   0.966       .  S
O208       Eu226   2.372   1_545  S
O208       Eu228   2.366   1_545  S
O209        C232   1.310       .  A
O209       Eu225   2.571       .  S
O210        C233   1.311       .  A
O210       Eu226   2.577       .  S
O211        C234   1.283       .  A
O211       Eu227   2.408   1_545  S
O212        C235   1.289       .  A
O212       Eu228   2.432   1_545  S
O213        C236   1.291       .  A
O213       Eu228   2.447       .  S
O214        C237   1.284       .  A
O214       Eu227   2.405       .  S
O215        C238   1.283       .  A
O215       Eu229   2.423       .  S
O216        C239   1.282       .  A
O216       Eu229   2.427       .  S
O217        C238   1.305       .  A
O217       Eu227   2.538       .  S
O218        C239   1.308       .  A
O218       Eu228   2.550       .  S
O219        C234   1.285       .  A
O219       Eu225   2.412   1_545  S
O220        C237   1.282       .  A
O220       Eu226   2.394       .  S
O221        C236   1.279       .  A
O221       Eu226   2.379       .  S
O222        C235   1.281       .  A
O222       Eu225   2.386   1_545  S
O223        C232   1.278       .  A
O223       Eu229   2.401       .  S
O224        C233   1.281       .  A
O224       Eu229   2.415       .  S
Eu225       O243   2.349       .  S
Eu225       O231   2.347       .  S
Eu226       O230   2.359       .  S
Eu226       O241   2.359       .  S
Eu227       O241   2.350       .  S
Eu227       O231   2.359       .  S
Eu228       O230   2.355       .  S
Eu228       O243   2.364       .  S
Eu229       O230   2.340       .  S
Eu229       O241   2.340       .  S
Eu229       O243   2.335       .  S
Eu229       O231   2.350       .  S
C232       C1115   1.505       .  S
C233       C1104   1.513       .  S
C234       C1045   1.435       .  S
C235       C1090   1.444       .  S
C236       C1031   1.438       .  S
C237       C1059   1.441       .  S
C238       C1017   1.513       .  S
C239        C989   1.530       .  S
H240        O241   0.966       .  S
H242        O243   0.965       .  S
C244        C245   1.440       .  A
C244        C249   1.389       .  A
C244        C964   1.500       .  S
C245        C246   1.437       .  A
C245        H250   1.082       .  S
C246        C247   1.390       .  A
C246       C1171   1.507       .  S
C247        C248   1.377       .  A
C247        H251   1.087   1_545  S
C248        C249   1.374       .  A
C248       C1062   1.443       .  S
C249        H252   1.087       .  S
C253        C254   1.393   1_565  A
C253        C258   1.449       .  A
C253        C950   1.522       .  S
C254        C255   1.381       .  A
C254        H259   1.087       .  S
C255        C256   1.389       .  A
C255       C1048   1.455       .  S
C256        C257   1.395   1_545  A
C256        H260   1.086       .  S
C257        C258   1.450       .  A
C257       C1157   1.527       .  S
C258        H261   1.082       .  S
C262        C263   1.437       .  A
C262        C267   1.393   1_545  A
C262        C933   1.500       .  S
C263        C264   1.437       .  A
C263        H268   1.082       .  S
C264        C265   1.391   1_545  A
C264       C1185   1.510       .  S
C265        C266   1.378       .  A
C265        H269   1.087       .  S
C266        C267   1.378       .  A
C266       C1034   1.448       .  S
C267        H270   1.087       .  S
O271        C282   1.314       .  A
O271       Eu307   2.586       .  S
O272        C283   1.307       .  A
O272       Eu306   2.545   1_565  S
O273        C284   1.284       .  A
O273       Eu279   2.440   1_565  S
O274        C285   1.283       .  A
O274       Eu279   2.424       .  S
O275        C285   1.312       .  A
O275       Eu309   2.580       .  S
O276        C284   1.307       .  A
O276       Eu308   2.552       .  S
O277        C283   1.284       .  A
O277       Eu279   2.439   1_566  S
O278        C282   1.278       .  A
O278       Eu279   2.400       .  S
Eu279       O289   2.360       .  S
Eu279       O281   2.361   1_545  S
Eu279       O280   2.341   1_554  S
Eu279       O287   2.330   1_544  S
O280       Eu309   2.366   1_556  S
O280       Eu306   2.341       .  S
O281       Eu307   2.376   1_565  S
O281       Eu308   2.360       .  S
C282       C1073   1.518       .  S
C283        C947   1.531       .  S
C284        C849   1.513       .  S
C285        C824   1.515       .  S
H286        O287   0.966       .  S
O287       Eu308   2.362   1_556  S
O287       Eu306   2.370   1_565  S
H288        O289   0.965       .  S
O289       Eu307   2.354       .  S
O289       Eu309   2.365       .  S
O290        C313   1.309       .  A
O290       Eu306   2.571       .  S
O291        C314   1.314       .  A
O291       Eu307   2.590       .  S
O292        C315   1.288       .  A
O292       Eu308   2.425   1_556  S
O293        C316   1.286       .  A
O293       Eu309   2.422   1_556  S
O294        C317   1.286       .  A
O294       Eu309   2.431       .  S
O295        C318   1.292       .  A
O295       Eu308   2.454       .  S
O296        C319   1.290       .  A
O296       Eu310   2.470   1_565  S
O297        C320   1.276       .  A
O297       Eu310   2.390       .  S
O298        C319   1.300       .  A
O298       Eu308   2.518       .  S
O299        C320   1.319       .  A
O299       Eu309   2.609       .  S
O300        C315   1.283       .  A
O300       Eu306   2.398   1_565  S
O301        C318   1.284       .  A
O301       Eu307   2.407   1_565  S
O302        C317   1.281       .  A
O302       Eu307   2.395       .  S
O303        C316   1.286       .  A
O303       Eu306   2.421       .  S
O304        C313   1.281       .  A
O304       Eu310   2.422   1_556  S
O305        C314   1.276       .  A
O305       Eu310   2.391       .  S
Eu306       O324   2.359       .  S
Eu306       O312   2.365   1_545  S
Eu307       O311   2.349       .  S
Eu307       O322   2.359   1_545  S
Eu308       O322   2.352       .  S
Eu308       O312   2.375   1_554  S
Eu309       O311   2.348       .  S
Eu309       O324   2.372   1_554  S
Eu310       O311   2.358       .  S
Eu310       O322   2.328   1_545  S
Eu310       O324   2.360   1_554  S
Eu310       O312   2.323   1_544  S
C313        C961   1.515       .  S
C314        C936   1.522       .  S
C315        C894   1.449       .  S
C316        C877   1.448       .  S
C317        C919   1.475       .  S
C318        C905   1.461       .  S
C319        C835   1.509       .  S
C320        C866   1.526       .  S
H321        O322   0.965       .  S
H323        O324   0.966       .  S
C325        C326   1.396       .  A
C325        C330   1.432       .  A
C325        C978   1.505       .  S
C326        C327   1.388       .  A
C326        H331   1.080       .  S
C327        C328   1.394       .  A
C327        C922   1.481       .  S
C328        C329   1.391       .  A
C328        H332   1.084       .  S
C329        C330   1.429       .  A
C329        C810   1.511       .  S
C330        H333   1.082       .  S
C334        C335   1.392       .  A
C334        C339   1.442       .  A
C334        C992   1.506       .  S
C335        C336   1.373       .  A
C335        H340   1.086       .  S
C336        C337   1.391       .  A
C336        C908   1.479       .  S
C337        C338   1.404       .  A
C337        H341   1.079       .  S
C338        C339   1.451       .  A
C338        C793   1.544       .  S
C339        H342   1.081       .  S
C343        C344   1.391       .  A
C343        C348   1.434       .  A
C343       C1020   1.503       .  S
C344        C345   1.375       .  A
C344        H349   1.085       .  S
C345        C346   1.372       .  A
C345        C891   1.456       .  S
C346        C347   1.396       .  A
C346        H350   1.086       .  S
C347        C348   1.435       .  A
C347        C779   1.507       .  S
C348        H351   1.082       .  S
C352        C353   1.436       .  A
C352        C357   1.397       .  A
C352       C1006   1.511       .  S
C353        C354   1.435       .  A
C353        H358   1.082       .  S
C354        C355   1.395       .  A
C354        C765   1.503       .  S
C355        C356   1.380       .  A
C355        H359   1.087       .  S
C356        C357   1.390       .  A
C356        C880   1.460       .  S
C357        H360   1.086       .  S
O361        C372   1.303       .  A
O361       Eu397   2.533       .  S
O362        C373   1.307       .  A
O362       Eu396   2.546   1_655  S
O363        C374   1.279   1_554  A
O363       Eu369   2.406       .  S
O364        C375   1.281       .  A
O364       Eu369   2.422   1_455  S
O365        C375   1.315       .  A
O365       Eu399   2.589       .  S
O366        C374   1.312       .  A
O366       Eu398   2.582       .  S
O367        C373   1.287       .  A
O367       Eu369   2.445   1_556  S
O368        C372   1.288       .  A
O368       Eu369   2.449       .  S
Eu369       O379   2.349   1_655  S
Eu369       O371   2.341       .  S
Eu369       O370   2.338   1_654  S
Eu369       O377   2.360   1_554  S
O370       Eu399   2.363   1_556  S
O370       Eu396   2.369       .  S
O371       Eu397   2.358       .  S
O371       Eu398   2.347   1_554  S
C372       C1507   1.504   1_655  S
C373       C1300   1.525       .  S
C374        C667   1.512       .  S
C375        C695   1.534       .  S
H376        O377   0.965       .  S
O377       Eu398   2.348       .  S
O377       Eu396   2.372   1_655  S
H378        O379   0.965       .  S
O379       Eu397   2.370   1_455  S
O379       Eu399   2.346       .  S
O380        C403   1.309       .  A
O380       Eu396   2.566       .  S
O381        C404   1.315       .  A
O381       Eu397   2.596       .  S
O382        C405   1.281       .  A
O382       Eu398   2.390       .  S
O383        C406   1.287       .  A
O383       Eu399   2.417   1_556  S
O384        C407   1.294       .  A
O384       Eu399   2.465       .  S
O385        C408   1.281       .  A
O385       Eu398   2.392   1_554  S
O386        C409   1.286       .  A
O386       Eu400   2.444   1_655  S
O387        C410   1.283       .  A
O387       Eu400   2.421       .  S
O388        C409   1.305       .  A
O388       Eu398   2.542   1_554  S
O389        C410   1.313       .  A
O389       Eu399   2.579       .  S
O390        C405   1.290       .  A
O390       Eu396   2.450   1_655  S
O391        C408   1.285       .  A
O391       Eu397   2.405       .  S
O392        C407   1.277       .  A
O392       Eu397   2.368   1_455  S
O393        C406   1.287       .  A
O393       Eu396   2.430       .  S
O394        C403   1.281       .  A
O394       Eu400   2.412   1_556  S
O395        C404   1.279   1_455  A
O395       Eu400   2.409       .  S
Eu396       O414   2.378       .  S
Eu396       O402   2.353   1_455  S
Eu397       O401   2.344   1_655  S
Eu397       O412   2.336       .  S
Eu398       O412   2.366   1_556  S
Eu398       O402   2.360       .  S
Eu399       O401   2.358       .  S
Eu399       O414   2.386   1_554  S
Eu400       O401   2.340       .  S
Eu400       O412   2.350   1_455  S
Eu400       O414   2.362   1_554  S
Eu400       O402   2.337   1_454  S
C403       C1328   1.521       .  S
C404       C1269   1.538       .  S
C405        C709   1.468       .  S
C406        C726   1.448       .  S
C407        C737   1.464       .  S
C408        C754   1.445       .  S
C409        C653   1.508       .  S
C410        C681   1.521       .  S
H411        O412   0.966       .  S
H413        O414   0.966       .  S
C415        C416   1.396       .  A
C415        C420   1.439       .  A
C415       C1423   1.510       .  S
C416        C417   1.377       .  A
C416        H421   1.086       .  S
C417        C418   1.379       .  A
C417        C751   1.457       .  S
C418        C419   1.388       .  A
C418        H422   1.086       .  S
C419        C420   1.437       .  A
C419        C639   1.508       .  S
C420        H423   1.082       .  S
C424        C425   1.447       .  A
C424        C429   1.389       .  A
C424       C1409   1.515       .  S
C425        C426   1.458       .  A
C425        H430   1.081       .  S
C426        C427   1.403       .  A
C426        C625   1.546       .  S
C427        C428   1.387       .  A
C427        H431   1.079       .  S
C428        C429   1.374       .  A
C428        C740   1.488       .  S
C429        H432   1.083       .  S
C433        C434   1.401       .  A
C433        C438   1.430       .  A
C433       C1440   1.511       .  S
C434        C435   1.385       .  A
C434        H439   1.085       .  S
C435        C436   1.379       .  A
C435        C723   1.464       .  S
C436        C437   1.396       .  A
C436        H440   1.086       .  S
C437        C438   1.427       .  A
C437        C611   1.494       .  S
C438        H441   1.082       .  S
C442        C443   1.395       .  A
C442        C447   1.423       .  A
C442       C1454   1.500       .  S
C443        C444   1.396       .  A
C443        H448   1.084       .  S
C444        C445   1.391       .  A
C444        C712   1.485       .  S
C445        C446   1.397       .  A
C445        H449   1.082       .  S
C446        C447   1.425       .  A
C446        C597   1.500       .  S
C447        H450   1.082       .  S
C451        C452   1.455       .  A
C451        C456   1.388       .  A
C451        C698   1.526   1_554  S
C452        C453   1.455       .  A
C452        H457   1.081       .  S
C453        C454   1.384       .  A
C453        C863   1.522       .  S
C454        C455   1.361       .  A
C454        H458   1.088       .  S
C455        C456   1.368       .  A
C455        C583   1.426       .  S
C456        H459   1.087       .  S
O460        C471   1.305       .  A
O460       Eu496   2.538       .  S
O461        C472   1.301       .  A
O461       Eu495   2.511   1_554  S
O462        C473   1.284       .  A
O462       Eu468   2.427       .  S
O463        C474   1.281       .  A
O463       Eu468   2.420       .  S
O464        C474   1.304       .  A
O464       Eu498   2.532   1_554  S
O465        C473   1.310       .  A
O465       Eu497   2.563       .  S
O466        C472   1.287       .  A
O466       Eu468   2.451       .  S
O467        C471   1.287       .  A
O467       Eu468   2.448       .  S
Eu468       O478   2.354       .  S
Eu468       O470   2.355       .  S
Eu468       O469   2.351       .  S
Eu468       O476   2.347       .  S
O469       Eu498   2.348   1_554  S
O469       Eu495   2.333   1_554  S
O470       Eu496   2.366       .  S
O470       Eu497   2.365       .  S
C471        C807   1.508       .  S
C472        C796   1.531       .  S
C473        C642   1.520       .  S
C474        C628   1.534       .  S
H475        O476   0.965       .  S
O476       Eu497   2.353       .  S
O476       Eu495   2.353   1_554  S
H477        O478   0.966       .  S
O478       Eu496   2.348       .  S
O478       Eu498   2.361   1_554  S
O479        C502   1.298       .  A
O479       Eu495   2.501       .  S
O480        C503   1.304       .  A
O480       Eu496   2.529   1_556  S
O481        C504   1.282       .  A
O481       Eu497   2.402   1_556  S
O482        C505   1.271       .  A
O482       Eu498   2.337       .  S
O483        C506   1.273       .  A
O483       Eu498   2.349       .  S
O484        C507   1.282       .  A
O484       Eu497   2.389       .  S
O485        C508   1.279       .  A
O485       Eu499   2.401       .  S
O486        C509   1.283       .  A
O486       Eu499   2.423       .  S
O487        C508   1.311       .  A
O487       Eu497   2.571   1_556  S
O488        C509   1.310       .  A
O488       Eu498   2.577       .  S
O489        C504   1.278       .  A
O489       Eu495   2.379       .  S
O490        C507   1.287       .  A
O490       Eu496   2.424       .  S
O491        C506   1.287   1_554  A
O491       Eu496   2.429       .  S
O492        C505   1.290       .  A
O492       Eu495   2.441       .  S
O493        C502   1.287       .  A
O493       Eu499   2.450       .  S
O494        C503   1.288       .  A
O494       Eu499   2.443       .  S
Eu495       O513   2.342       .  S
Eu495       O501   2.352       .  S
Eu496       O500   2.358   1_554  S
Eu496       O511   2.357   1_554  S
Eu497       O511   2.355   1_554  S
Eu497       O501   2.346   1_554  S
Eu498       O500   2.339       .  S
Eu498       O513   2.334       .  S
Eu499       O500   2.343       .  S
Eu499       O511   2.343       .  S
Eu499       O513   2.342       .  S
Eu499       O501   2.336       .  S
C502        C782   1.494       .  S
C503        C768   1.518       .  S
C504        C569   1.465       .  S
C505        C555   1.437       .  S
C506        C586   1.418   1_556  S
C507        C541   1.442   1_554  S
C508        C600   1.522       .  S
C509        C614   1.516       .  S
H510        O511   0.965       .  S
H512        O513   0.966       .  S
C514        C515   1.432       .  A
C514        C519   1.383   1_554  A
C514        C852   1.508       .  S
C515        C516   1.436       .  A
C515        H520   1.082       .  S
C516        C517   1.391       .  A
C516        C656   1.505       .  S
C517        C518   1.384       .  A
C517        H521   1.083       .  S
C518        C519   1.392   1_554  A
C518        C572   1.466       .  S
C519        H522   1.085       .  S
C523        C524   1.444       .  A
C523        C528   1.391   1_554  A
C523        C838   1.514       .  S
C524        C525   1.444       .  A
C524        H529   1.082       .  S
C525        C526   1.385       .  A
C525        C684   1.510       .  S
C526        C527   1.372   1_554  A
C526        H530   1.087       .  S
C527        C528   1.368       .  A
C527        C558   1.440       .  S
C528        H531   1.087       .  S
C532        C533   1.439       .  A
C532        C537   1.387       .  A
C532        C821   1.507       .  S
C533        C534   1.441       .  A
C533        H538   1.082       .  S
C534        C535   1.389       .  A
C534        C670   1.505       .  S
C535        C536   1.373       .  A
C535        H539   1.087       .  S
C536        C537   1.376       .  A
C536        C544   1.445       .  S
C537        H540   1.087       .  S
C541        C542   1.411       .  A
C541        C546   1.410   1_556  A
C542        C543   1.391       .  A
C542        C547   1.449       .  S
C543        C544   1.400       .  A
C543        C550   1.451       .  S
C544        C545   1.410   1_556  A
C545        C546   1.392       .  A
C545        C548   1.453       .  S
C546        C549   1.455       .  S
C547        N554   1.156       .  T
C548        N553   1.157       .  T
C549        N551   1.158       .  T
C550        N552   1.156       .  T
C555        C556   1.400   1_556  A
C555        C560   1.411       .  A
C556        C557   1.388       .  A
C556        C561   1.450       .  S
C557        C558   1.413   1_554  A
C557        C564   1.456       .  S
C558        C559   1.404       .  A
C559        C560   1.388       .  A
C559        C562   1.454       .  S
C560        C563   1.452       .  S
C561        N568   1.156       .  T
C562        N567   1.157       .  T
C563        N565   1.158       .  T
C564        N566   1.157       .  T
C569        C570   1.414       .  A
C569        C574   1.412   1_556  A
C570        C571   1.396       .  A
C570        C575   1.455       .  S
C571        C572   1.417   1_556  A
C571        C578   1.449       .  S
C572        C573   1.408       .  A
C573        C574   1.385       .  A
C573        C576   1.455       .  S
C574        C577   1.451   1_554  S
C575        N582   1.157       .  T
C576        N581   1.157       .  T
C577        N579   1.157       .  T
C578        N580   1.155       .  T
C583        C584   1.399       .  A
C583        C588   1.411   1_554  A
C584        C585   1.385       .  A
C584        C589   1.453       .  S
C585        C586   1.404       .  A
C585        C592   1.445       .  S
C586        C587   1.395   1_554  A
C587        C588   1.384       .  A
C587        C590   1.449       .  S
C588        C591   1.453       .  S
C589        N596   1.157       .  T
C590        N595   1.156       .  T
C591        N593   1.157       .  T
C592        N594   1.154       .  T
C597        C598   1.418       .  A
C597        C602   1.403       .  A
C598        C599   1.424       .  A
C598        C603   1.450       .  S
C599        C600   1.416       .  A
C599        C606   1.449       .  S
C600        C601   1.435       .  A
C601        C602   1.417       .  A
C601        C604   1.450       .  S
C602        C605   1.452       .  S
C603        N610   1.157       .  T
C604        N609   1.157       .  T
C605        N607   1.157       .  T
C606        N608   1.157       .  T
C611        C612   1.405       .  A
C611        C616   1.407       .  A
C612        C613   1.422       .  A
C612        C617   1.449       .  S
C613        C614   1.421       .  A
C613        C620   1.437       .  S
C614        C615   1.420       .  A
C615        C616   1.415       .  A
C615        C618   1.439       .  S
C616        C619   1.452       .  S
C617        N624   1.157       .  T
C618        N623   1.152       .  T
C619        N621   1.157       .  T
C620        N622   1.154       .  T
C625        C626   1.445       .  A
C625        C630   1.415       .  A
C626        C627   1.416       .  A
C626        C631   1.452       .  S
C627        C628   1.412       .  A
C627        C634   1.458       .  S
C628        C629   1.437       .  A
C629        C630   1.430       .  A
C629        C632   1.452       .  S
C630        C633   1.451       .  S
C631        N638   1.158       .  T
C632        N637   1.158       .  T
C633        N635   1.157       .  T
C634        N636   1.158       .  T
C639        C640   1.423       .  A
C639        C644   1.407       .  A
C640        C641   1.424       .  A
C640        C645   1.451       .  S
C641        C642   1.415       .  A
C641        C648   1.450       .  S
C642        C643   1.428       .  A
C643        C644   1.421       .  A
C643        C646   1.447       .  S
C644        C647   1.450       .  S
C645        N652   1.157       .  T
C646        N651   1.156       .  T
C647        N649   1.157       .  T
C648        N650   1.157       .  T
C653        C654   1.417       .  A
C653        C658   1.413   1_554  A
C654        C655   1.421       .  A
C654        C659   1.448       .  S
C655        C656   1.414       .  A
C655        C662   1.449       .  S
C656        C657   1.422   1_554  A
C657        C658   1.424       .  A
C657        C660   1.451       .  S
C658        C661   1.450       .  S
C659        N666   1.156       .  T
C660        N665   1.157       .  T
C661        N663   1.157       .  T
C662        N664   1.157       .  T
C667        C668   1.414       .  A
C667        C672   1.418   1_556  A
C668        C669   1.423       .  A
C668        C673   1.446       .  S
C669        C670   1.420       .  A
C669        C676   1.449       .  S
C670        C671   1.412   1_556  A
C671        C672   1.422       .  A
C671        C674   1.451       .  S
C672        C675   1.440       .  S
C673        N680   1.156       .  T
C674        N679   1.157       .  T
C675        N677   1.153       .  T
C676        N678   1.157       .  T
C681        C682   1.425   1_554  A
C681        C686   1.414       .  A
C682        C683   1.422       .  A
C682        C687   1.442       .  S
C683        C684   1.408   1_556  A
C683        C690   1.451       .  S
C684        C685   1.426       .  A
C685        C686   1.427       .  A
C685        C688   1.450       .  S
C686        C689   1.449       .  S
C687        N694   1.154       .  T
C688        N693   1.157       .  T
C689        N691   1.157       .  T
C690        N692   1.157       .  T
C695        C696   1.438       .  A
C695        C700   1.412   1_554  A
C696        C697   1.431       .  A
C696        C701   1.447       .  S
C697        C698   1.407   1_554  A
C697        C704   1.447       .  S
C698        C699   1.428       .  A
C699        C700   1.421       .  A
C699        C702   1.449       .  S
C700        C703   1.448       .  S
C701        N708   1.157       .  T
C702        N707   1.156       .  T
C703        N705   1.157       .  T
C704        N706   1.157       .  T
C709        C710   1.412       .  A
C709        C714   1.415       .  A
C710        C711   1.389       .  A
C710        C715   1.457       .  S
C711        C712   1.410       .  A
C711        C718   1.446       .  S
C712        C713   1.412       .  A
C713        C714   1.409       .  A
C713        C716   1.451       .  S
C714        C717   1.446       .  S
C715        N722   1.157       .  T
C716        N721   1.157       .  T
C717        N719   1.155       .  T
C718        N720   1.156       .  T
C723        C724   1.405       .  A
C723        C728   1.418       .  A
C724        C725   1.403       .  A
C724        C729   1.450       .  S
C725        C726   1.411       .  A
C725        C732   1.450       .  S
C726        C727   1.401       .  A
C727        C728   1.394       .  A
C727        C730   1.457       .  S
C728        C731   1.449       .  S
C729        N736   1.157       .  T
C730        N735   1.158       .  T
C731        N733   1.155       .  T
C732        N734   1.157       .  T
C737        C738   1.395       .  A
C737        C742   1.406       .  A
C738        C739   1.399       .  A
C738        C743   1.453       .  S
C739        C740   1.435       .  A
C739        C746   1.448       .  S
C740        C741   1.410       .  A
C741        C742   1.395       .  A
C741        C744   1.448       .  S
C742        C745   1.447       .  S
C743        N750   1.157       .  T
C744        N749   1.157       .  T
C745        N747   1.158       .  T
C746        N748   1.158       .  T
C751        C752   1.418       .  A
C751        C756   1.407       .  A
C752        C753   1.389       .  A
C752        C757   1.452       .  S
C753        C754   1.405       .  A
C753        C760   1.458       .  S
C754        C755   1.411       .  A
C755        C756   1.396       .  A
C755        C758   1.451       .  S
C756        C759   1.453       .  S
C757        N764   1.156       .  T
C758        N763   1.157       .  T
C759        N761   1.157       .  T
C760        N762   1.157       .  T
C765        C766   1.415       .  A
C765        C770   1.412       .  A
C766        C767   1.420       .  A
C766        C771   1.445       .  S
C767        C768   1.415       .  A
C767        C774   1.448       .  S
C768        C769   1.425       .  A
C769        C770   1.420       .  A
C769        C772   1.448       .  S
C770        C773   1.451       .  S
C771        N778   1.157       .  T
C772        N777   1.156       .  T
C773        N775   1.157       .  T
C774        N776   1.157       .  T
C779        C780   1.419       .  A
C779        C784   1.422       .  A
C780        C781   1.425       .  A
C780        C785   1.448       .  S
C781        C782   1.415       .  A
C781        C788   1.449       .  S
C782        C783   1.401       .  A
C783        C784   1.409       .  A
C783        C786   1.448       .  S
C784        C787   1.451       .  S
C785        N792   1.157       .  T
C786        N791   1.157       .  T
C787        N789   1.157       .  T
C788        N790   1.158       .  T
C793        C794   1.442       .  A
C793        C798   1.418       .  A
C794        C795   1.413       .  A
C794        C799   1.453       .  S
C795        C796   1.412       .  A
C795        C802   1.455       .  S
C796        C797   1.431       .  A
C797        C798   1.431       .  A
C797        C800   1.451       .  S
C798        C801   1.450       .  S
C799        N806   1.158       .  T
C800        N805   1.158       .  T
C801        N803   1.157       .  T
C802        N804   1.156       .  T
C807        C808   1.424       .  A
C807        C812   1.409       .  A
C808        C809   1.427       .  A
C808        C813   1.443       .  S
C809        C810   1.410       .  A
C809        C816   1.447       .  S
C810        C811   1.421       .  A
C811        C812   1.411       .  A
C811        C814   1.453       .  S
C812        C815   1.447       .  S
C813        N820   1.156       .  T
C814        N819   1.157       .  T
C815        N817   1.155       .  T
C816        N818   1.157       .  T
C821        C822   1.419   1_556  A
C821        C826   1.414       .  A
C822        C823   1.423       .  A
C822        C827   1.451       .  S
C823        C824   1.414       .  A
C823        C830   1.443       .  S
C824        C825   1.421   1_554  A
C825        C826   1.424       .  A
C825        C828   1.450       .  S
C826        C829   1.449       .  S
C827        N834   1.157       .  T
C828        N833   1.157       .  T
C829        N831   1.157       .  T
C830        N832   1.155       .  T
C835        C836   1.417       .  A
C835        C840   1.404   1_554  A
C836        C837   1.427       .  A
C836        C841   1.445       .  S
C837        C838   1.417       .  A
C837        C844   1.449       .  S
C838        C839   1.425   1_554  A
C839        C840   1.416       .  A
C839        C842   1.451       .  S
C840        C843   1.448       .  S
C841        N848   1.156       .  T
C842        N847   1.157       .  T
C843        N845   1.157       .  T
C844        N846   1.157       .  T
C849        C850   1.415       .  A
C849        C854   1.420   1_554  A
C850        C851   1.423       .  A
C850        C855   1.450       .  S
C851        C852   1.420       .  A
C851        C858   1.451       .  S
C852        C853   1.414   1_554  A
C853        C854   1.425       .  A
C853        C856   1.449       .  S
C854        C857   1.447       .  S
C855        N862   1.157       .  T
C856        N861   1.157       .  T
C857        N859   1.156       .  T
C858        N860   1.157       .  T
C863        C864   1.431       .  A
C863        C868   1.406   1_554  A
C864        C865   1.422       .  A
C864        C869   1.452       .  S
C865        C866   1.411       .  A
C865        C872   1.449       .  S
C866        C867   1.436   1_554  A
C867        C868   1.426       .  A
C867        C870   1.445       .  S
C868        C871   1.448       .  S
C869        N876   1.157       .  T
C870        N875   1.156       .  T
C871        N873   1.157       .  T
C872        N874   1.157       .  T
C877        C878   1.399       .  A
C877        C882   1.416       .  A
C878        C879   1.373       .  A
C878        C883   1.449       .  S
C879        C880   1.404       .  A
C879        C886   1.443       .  S
C880        C881   1.403       .  A
C881        C882   1.409       .  A
C881        C884   1.446       .  S
C882        C885   1.443       .  S
C883        N890   1.156       .  T
C884        N889   1.157       .  T
C885        N887   1.156       .  T
C886        N888   1.155       .  T
C891        C892   1.416       .  A
C891        C896   1.406       .  A
C892        C893   1.392       .  A
C892        C897   1.456       .  S
C893        C894   1.409       .  A
C893        C900   1.454       .  S
C894        C895   1.413       .  A
C895        C896   1.394       .  A
C895        C898   1.451       .  S
C896        C899   1.454       .  S
C897        N904   1.158       .  T
C898        N903   1.157       .  T
C899        N901   1.157       .  T
C900        N902   1.157       .  T
C905        C906   1.417       .  A
C905        C910   1.399       .  A
C906        C907   1.407       .  A
C906        C911   1.449       .  S
C907        C908   1.406       .  A
C907        C914   1.452       .  S
C908        C909   1.426       .  A
C909        C910   1.391       .  A
C909        C912   1.451       .  S
C910        C913   1.455       .  S
C911        N918   1.156       .  T
C912        N917   1.158       .  T
C913        N915   1.157       .  T
C914        N916   1.157       .  T
C919        C920   1.421       .  A
C919        C924   1.420       .  A
C920        C921   1.396       .  A
C920        C925   1.457       .  S
C921        C922   1.409       .  A
C921        C928   1.449       .  S
C922        C923   1.408       .  A
C923        C924   1.402       .  A
C923        C926   1.453       .  S
C924        C927   1.453       .  S
C925        N932   1.158       .  T
C926        N931   1.157       .  T
C927        N929   1.158       .  T
C928        N930   1.157       .  T
C933        C934   1.406   1_545  A
C933        C938   1.416       .  A
C934        C935   1.417       .  A
C934        C939   1.451       .  S
C935        C936   1.432   1_565  A
C935        C942   1.447       .  S
C936        C937   1.414       .  A
C937        C938   1.424       .  A
C937        C940   1.445       .  S
C938        C941   1.445       .  S
C939        N946   1.157       .  T
C940        N945   1.156       .  T
C941        N943   1.157       .  T
C942        N944   1.156       .  T
C947        C948   1.414       .  A
C947        C952   1.434       .  A
C948        C949   1.421       .  A
C948        C953   1.454       .  S
C949        C950   1.427       .  A
C949        C956   1.444       .  S
C950        C951   1.411       .  A
C951        C952   1.428       .  A
C951        C954   1.450   1_565  S
C952        C955   1.450   1_565  S
C953        N960   1.158       .  T
C954        N959   1.157       .  T
C955        N957   1.158       .  T
C956        N958   1.157       .  T
C961        C962   1.417   1_545  A
C961        C966   1.420       .  A
C962        C963   1.418       .  A
C962        C967   1.438       .  S
C963        C964   1.411   1_565  A
C963        C970   1.453       .  S
C964        C965   1.417       .  A
C965        C966   1.426       .  A
C965        C968   1.448       .  S
C966        C969   1.449       .  S
C967        N974   1.152       .  T
C968        N973   1.157       .  T
C969        N971   1.158       .  T
C970        N972   1.157       .  T
C975        C976   1.429       .  A
C975        C980   1.416       .  A
C976        C977   1.420       .  A
C976        C981   1.446       .  S
C977        C978   1.406       .  A
C977        C984   1.452       .  S
C978        C979   1.421       .  A
C979        C980   1.426       .  A
C979        C982   1.451       .  S
C980        C983   1.447       .  S
C981        N988   1.155       .  T
C982        N987   1.157       .  T
C983        N985   1.157       .  T
C984        N986   1.157       .  T
C989        C990   1.436       .  A
C989        C994   1.417       .  A
C990        C991   1.422       .  A
C990        C995   1.451       .  S
C991        C992   1.406       .  A
C991        C998   1.451       .  S
C992        C993   1.422       .  A
C993        C994   1.422       .  A
C993        C996   1.448       .  S
C994        C997   1.451       .  S
C995       N1002   1.158       .  T
C996       N1001   1.157       .  T
C997        N999   1.158       .  T
C998       N1000   1.157       .  T
C1003      C1004   1.416       .  A
C1003      C1008   1.437       .  A
C1004      C1005   1.415       .  A
C1004      C1009   1.454       .  S
C1005      C1006   1.421       .  A
C1005      C1012   1.444       .  S
C1006      C1007   1.406       .  A
C1007      C1008   1.423       .  A
C1007      C1010   1.449       .  S
C1008      C1011   1.450       .  S
C1009      N1016   1.158       .  T
C1010      N1015   1.157       .  T
C1011      N1013   1.158       .  T
C1012      N1014   1.157       .  T
C1017      C1018   1.429       .  A
C1017      C1022   1.414       .  A
C1018      C1019   1.420       .  A
C1018      C1023   1.448       .  S
C1019      C1020   1.406       .  A
C1019      C1026   1.450       .  S
C1020      C1021   1.421       .  A
C1021      C1022   1.417       .  A
C1021      C1024   1.452       .  S
C1022      C1025   1.450       .  S
C1023      N1030   1.156       .  T
C1024      N1029   1.157       .  T
C1025      N1027   1.157       .  T
C1026      N1028   1.157       .  T
C1031      C1032   1.393   1_565  A
C1031      C1036   1.404       .  A
C1032      C1033   1.386       .  A
C1032      C1037   1.449       .  S
C1033      C1034   1.415   1_545  A
C1033      C1040   1.450       .  S
C1034      C1035   1.404       .  A
C1035      C1036   1.398       .  A
C1035      C1038   1.451       .  S
C1036      C1039   1.442       .  S
C1037      N1044   1.154       .  T
C1038      N1043   1.157       .  T
C1039      N1041   1.155       .  T
C1040      N1042   1.155       .  T
C1045      C1046   1.411       .  A
C1045      C1050   1.394   1_545  A
C1046      C1047   1.403       .  A
C1046      C1051   1.447       .  S
C1047      C1048   1.403       .  A
C1047      C1054   1.449       .  S
C1048      C1049   1.415   1_545  A
C1049      C1050   1.380       .  A
C1049      C1052   1.448       .  S
C1050      C1053   1.451       .  S
C1051      N1058   1.156       .  T
C1052      N1057   1.157       .  T
C1053      N1055   1.155       .  T
C1054      N1056   1.157       .  T
C1059      C1060   1.412       .  A
C1059      C1064   1.408   1_565  A
C1060      C1061   1.396       .  A
C1060      C1065   1.453       .  S
C1061      C1062   1.407   1_565  A
C1061      C1068   1.453       .  S
C1062      C1063   1.404       .  A
C1063      C1064   1.384       .  A
C1063      C1066   1.451       .  S
C1064      C1067   1.454       .  S
C1065      N1072   1.158       .  T
C1066      N1071   1.156       .  T
C1067      N1069   1.157       .  T
C1068      N1070   1.157       .  T
C1073      C1074   1.410       .  A
C1073      C1078   1.431   1_545  A
C1074      C1075   1.415       .  A
C1074      C1079   1.438       .  S
C1075      C1076   1.414       .  A
C1075      C1082   1.448       .  S
C1076      C1077   1.406   1_545  A
C1077      C1078   1.423       .  A
C1077      C1080   1.448       .  S
C1078      C1081   1.442       .  S
C1079      N1086   1.153       .  T
C1080      N1085   1.157       .  T
C1081      N1083   1.155       .  T
C1082      N1084   1.157       .  T
C1087      C1088   1.408       .  A
C1087      C1092   1.409   1_545  A
C1088      C1089   1.392       .  A
C1088      C1093   1.450       .  S
C1089      C1090   1.406       .  A
C1089      C1096   1.452       .  S
C1090      C1091   1.410   1_545  A
C1091      C1092   1.394       .  A
C1091      C1094   1.451       .  S
C1092      C1095   1.452       .  S
C1093      N1100   1.156       .  T
C1094      N1099   1.157       .  T
C1095      N1097   1.157       .  T
C1096      N1098   1.156       .  T
C1101      C1102   1.413       .  A
C1101      C1106   1.416       .  A
C1102      C1103   1.423       .  A
C1102      C1107   1.449       .  S
C1103      C1104   1.423       .  A
C1103      C1110   1.450       .  S
C1104      C1105   1.415       .  A
C1105      C1106   1.422       .  A
C1105      C1108   1.447       .  S
C1106      C1109   1.449       .  S
C1107      N1114   1.157       .  T
C1108      N1113   1.156       .  T
C1109      N1111   1.157       .  T
C1110      N1112   1.157       .  T
C1115      C1116   1.418       .  A
C1115      C1120   1.416       .  A
C1116      C1117   1.419       .  A
C1116      C1121   1.442       .  S
C1117      C1118   1.409       .  A
C1117      C1124   1.450       .  S
C1118      C1119   1.416       .  A
C1119      C1120   1.418       .  A
C1119      C1122   1.450       .  S
C1120      C1123   1.449       .  S
C1121      N1128   1.155       .  T
C1122      N1127   1.157       .  T
C1123      N1125   1.157       .  T
C1124      N1126   1.157       .  T
C1129      C1130   1.426       .  A
C1129      C1134   1.413       .  A
C1130      C1131   1.414       .  A
C1130      C1135   1.449       .  S
C1131      C1132   1.409       .  A
C1131      C1138   1.448       .  S
C1132      C1133   1.427       .  A
C1133      C1134   1.431       .  A
C1133      C1136   1.444       .  S
C1134      C1137   1.448       .  S
C1135      N1142   1.156       .  T
C1136      N1141   1.155       .  T
C1137      N1139   1.157       .  T
C1138      N1140   1.156       .  T
C1143      C1144   1.424       .  A
C1143      C1148   1.417       .  A
C1144      C1145   1.422       .  A
C1144      C1149   1.452       .  S
C1145      C1146   1.416       .  A
C1145      C1152   1.447       .  S
C1146      C1147   1.426       .  A
C1147      C1148   1.434       .  A
C1147      C1150   1.445       .  S
C1148      C1151   1.447       .  S
C1149      N1156   1.157       .  T
C1150      N1155   1.157       .  T
C1151      N1153   1.157       .  T
C1152      N1154   1.156       .  T
C1157      C1158   1.433       .  A
C1157      C1162   1.413   1_565  A
C1158      C1159   1.421       .  A
C1158      C1163   1.443       .  S
C1159      C1160   1.408       .  A
C1159      C1166   1.456       .  S
C1160      C1161   1.430   1_565  A
C1161      C1162   1.428       .  A
C1161      C1164   1.450       .  S
C1162      C1165   1.451       .  S
C1163      N1170   1.158       .  T
C1164      N1169   1.157       .  T
C1165      N1167   1.157       .  T
C1166      N1168   1.157       .  T
C1171      C1172   1.413       .  A
C1171      C1176   1.411   1_545  A
C1172      C1173   1.417       .  A
C1172      C1177   1.447       .  S
C1173      C1174   1.413       .  A
C1173      C1180   1.446       .  S
C1174      C1175   1.428   1_545  A
C1175      C1176   1.428       .  A
C1175      C1178   1.445       .  S
C1176      C1179   1.448       .  S
C1177      N1184   1.157       .  T
C1178      N1183   1.156       .  T
C1179      N1181   1.157       .  T
C1180      N1182   1.156       .  T
C1185      C1186   1.419   1_545  A
C1185      C1190   1.418       .  A
C1186      C1187   1.416       .  A
C1186      C1191   1.452       .  S
C1187      C1188   1.412   1_565  A
C1187      C1194   1.450       .  S
C1188      C1189   1.417       .  A
C1189      C1190   1.427       .  A
C1189      C1192   1.448       .  S
C1190      C1193   1.448       .  S
C1191      N1198   1.157       .  T
C1192      N1197   1.157       .  T
C1193      N1195   1.157       .  T
C1194      N1196   1.156       .  T
C1199      C1200   1.415   1_545  A
C1199      C1204   1.410       .  A
C1200      C1201   1.420       .  A
C1200      C1205   1.451       .  S
C1201      C1202   1.414   1_565  A
C1201      C1208   1.441       .  S
C1202      C1203   1.420       .  A
C1203      C1204   1.421       .  A
C1203      C1206   1.444       .  S
C1204      C1207   1.449       .  S
C1205      N1212   1.157       .  T
C1206      N1211   1.155       .  T
C1207      N1209   1.157       .  T
C1208      N1210   1.154       .  T
C1213      C1214   1.410       .  A
C1213      C1218   1.407       .  A
C1214      C1215   1.391       .  A
C1214      C1219   1.452       .  S
C1215      C1216   1.410       .  A
C1215      C1222   1.456       .  S
C1216      C1217   1.413       .  A
C1217      C1218   1.394       .  A
C1217      C1220   1.453       .  S
C1218      C1221   1.455       .  S
C1219      N1226   1.156       .  T
C1220      N1225   1.157       .  T
C1221      N1223   1.157       .  T
C1222      N1224   1.157       .  T
C1227      C1228   1.413       .  A
C1227      C1232   1.412       .  A
C1228      C1229   1.394       .  A
C1228      C1233   1.447       .  S
C1229      C1230   1.407       .  A
C1229      C1236   1.457       .  S
C1230      C1231   1.412       .  A
C1231      C1232   1.397       .  A
C1231      C1234   1.452       .  S
C1232      C1235   1.454       .  S
C1233      N1240   1.155       .  T
C1234      N1239   1.158       .  T
C1235      N1237   1.157       .  T
C1236      N1238   1.157       .  T
C1241      C1242   1.407       .  A
C1241      C1246   1.406       .  A
C1242      C1243   1.386       .  A
C1242      C1247   1.452       .  S
C1243      C1244   1.407       .  A
C1243      C1250   1.447       .  S
C1244      C1245   1.400       .  A
C1245      C1246   1.390       .  A
C1245      C1248   1.449       .  S
C1246      C1249   1.447       .  S
C1247      N1254   1.156       .  T
C1248      N1253   1.157       .  T
C1249      N1251   1.156       .  T
C1250      N1252   1.155       .  T
C1255      C1256   1.407       .  A
C1255      C1260   1.422       .  A
C1256      C1257   1.397       .  A
C1256      C1261   1.454       .  S
C1257      C1258   1.414       .  A
C1257      C1264   1.450       .  S
C1258      C1259   1.408       .  A
C1259      C1260   1.389       .  A
C1259      C1262   1.458       .  S
C1260      C1263   1.452       .  S
C1261      N1268   1.157       .  T
C1262      N1267   1.157       .  T
C1263      N1265   1.156       .  T
C1264      N1266   1.157       .  T
C1269      C1270   1.442       .  A
C1269      C1274   1.411   1_655  A
C1270      C1271   1.431       .  A
C1270      C1275   1.449       .  S
C1271      C1272   1.407   1_655  A
C1271      C1278   1.447       .  S
C1272      C1273   1.420       .  A
C1273      C1274   1.416       .  A
C1273      C1276   1.453       .  S
C1274      C1277   1.436       .  S
C1275      N1282   1.157       .  T
C1276      N1281   1.157       .  T
C1277      N1279   1.153       .  T
C1278      N1280   1.157       .  T
C1283      C1284   1.409       .  A
C1283      C1288   1.431   1_655  A
C1284      C1285   1.411       .  A
C1284      C1289   1.449       .  S
C1285      C1286   1.424       .  A
C1285      C1292   1.453       .  S
C1286      C1287   1.413   1_655  A
C1287      C1288   1.429       .  A
C1287      C1290   1.447       .  S
C1288      C1291   1.446       .  S
C1289      N1296   1.157       .  T
C1290      N1295   1.157       .  T
C1291      N1293   1.157       .  T
C1292      N1294   1.157       .  T
C1297      C1298   1.422       .  A
C1297      C1302   1.408   1_655  A
C1298      C1299   1.422       .  A
C1298      C1303   1.452       .  S
C1299      C1300   1.418       .  A
C1299      C1306   1.450       .  S
C1300      C1301   1.430   1_655  A
C1301      C1302   1.422       .  A
C1301      C1304   1.449       .  S
C1302      C1305   1.451       .  S
C1303      N1310   1.157       .  T
C1304      N1309   1.156       .  T
C1305      N1307   1.157       .  T
C1306      N1308   1.158       .  T
C1311      C1312   1.418       .  A
C1311      C1316   1.412   1_655  A
C1312      C1313   1.429       .  A
C1312      C1317   1.448       .  S
C1313      C1314   1.419   1_655  A
C1313      C1320   1.447       .  S
C1314      C1315   1.416       .  A
C1315      C1316   1.415       .  A
C1315      C1318   1.452       .  S
C1316      C1319   1.440       .  S
C1317      N1324   1.157       .  T
C1318      N1323   1.157       .  T
C1319      N1321   1.153       .  T
C1320      N1322   1.157       .  T
C1325      C1326   1.420       .  A
C1325      C1330   1.406   1_455  A
C1326      C1327   1.425       .  A
C1326      C1331   1.450       .  S
C1327      C1328   1.415       .  A
C1327      C1334   1.449       .  S
C1328      C1329   1.428   1_455  A
C1329      C1330   1.418       .  A
C1329      C1332   1.444       .  S
C1330      C1333   1.452       .  S
C1331      N1338   1.157       .  T
C1332      N1337   1.155       .  T
C1333      N1335   1.157       .  T
C1334      N1336   1.157       .  T
C1339      C1340   1.416       .  A
C1339      C1344   1.418   1_455  A
C1340      C1341   1.423       .  A
C1340      C1345   1.449       .  S
C1341      C1342   1.415       .  A
C1341      C1348   1.446       .  S
C1342      C1343   1.417   1_455  A
C1343      C1344   1.421       .  A
C1343      C1346   1.451       .  S
C1344      C1347   1.451       .  S
C1345      N1352   1.157       .  T
C1346      N1351   1.157       .  T
C1347      N1349   1.157       .  T
C1348      N1350   1.156       .  T
C1353      C1354   1.416       .  A
C1353      C1358   1.416       .  A
C1354      C1355   1.423       .  A
C1354      C1359   1.450       .  S
C1355      C1356   1.418       .  A
C1355      C1362   1.449       .  S
C1356      C1357   1.417       .  A
C1357      C1358   1.421       .  A
C1357      C1360   1.450       .  S
C1358      C1361   1.451       .  S
C1359      N1366   1.157       .  T
C1360      N1365   1.157       .  T
C1361      N1363   1.158       .  T
C1362      N1364   1.157       .  T
C1367      C1368   1.415       .  A
C1367      C1372   1.403       .  A
C1368      C1369   1.426       .  A
C1368      C1373   1.445       .  S
C1369      C1370   1.416       .  A
C1369      C1376   1.445       .  S
C1370      C1371   1.436       .  A
C1371      C1372   1.420       .  A
C1371      C1374   1.445       .  S
C1372      C1375   1.448       .  S
C1373      N1380   1.157       .  T
C1374      N1379   1.156       .  T
C1375      N1377   1.157       .  T
C1376      N1378   1.156       .  T
C1381      C1382   1.424       .  A
C1381      C1386   1.418       .  A
C1382      C1383   1.427       .  A
C1382      C1387   1.447       .  S
C1383      C1384   1.413       .  A
C1383      C1390   1.450       .  S
C1384      C1385   1.427       .  A
C1385      C1386   1.431       .  A
C1385      C1388   1.451       .  S
C1386      C1389   1.448       .  S
C1387      N1394   1.156       .  T
C1388      N1393   1.157       .  T
C1389      N1391   1.158       .  T
C1390      N1392   1.157       .  T
C1395      C1396   1.431       .  A
C1395      C1400   1.419       .  A
C1396      C1397   1.421       .  A
C1396      C1401   1.441       .  S
C1397      C1398   1.404       .  A
C1397      C1404   1.447       .  S
C1398      C1399   1.405       .  A
C1399      C1400   1.419       .  A
C1399      C1402   1.451       .  S
C1400      C1403   1.432       .  S
C1401      N1408   1.155       .  T
C1402      N1407   1.158       .  T
C1403      N1405   1.152       .  T
C1404      N1406   1.157       .  T
C1409      C1410   1.423       .  A
C1409      C1414   1.409       .  A
C1410      C1411   1.425       .  A
C1410      C1415   1.448       .  S
C1411      C1412   1.418       .  A
C1411      C1418   1.450       .  S
C1412      C1413   1.435       .  A
C1413      C1414   1.427       .  A
C1413      C1416   1.450       .  S
C1414      C1417   1.450       .  S
C1415      N1422   1.157       .  T
C1416      N1421   1.157       .  T
C1417      N1419   1.157       .  T
C1418      N1420   1.157       .  T
C1423      C1424   1.419       .  A
C1423      C1428   1.414       .  A
C1424      C1425   1.418       .  A
C1424      C1429   1.451       .  S
C1425      C1426   1.415       .  A
C1425      C1432   1.452       .  S
C1426      C1427   1.421       .  A
C1427      C1428   1.426       .  A
C1427      C1430   1.450       .  S
C1428      C1431   1.449       .  S
C1429      N1436   1.157       .  T
C1430      N1435   1.158       .  T
C1431      N1433   1.157       .  T
C1432      N1434   1.158       .  T
C1437      C1438   1.419       .  A
C1437      C1442   1.436       .  A
C1438      C1439   1.416       .  A
C1438      C1443   1.450       .  S
C1439      C1440   1.421       .  A
C1439      C1446   1.453       .  S
C1440      C1441   1.406       .  A
C1441      C1442   1.421       .  A
C1441      C1444   1.450       .  S
C1442      C1445   1.451       .  S
C1443      N1450   1.157       .  T
C1444      N1449   1.157       .  T
C1445      N1447   1.158       .  T
C1446      N1448   1.157       .  T
C1451      C1452   1.407       .  A
C1451      C1456   1.415       .  A
C1452      C1453   1.409       .  A
C1452      C1457   1.438       .  S
C1453      C1454   1.415       .  A
C1453      C1460   1.454       .  S
C1454      C1455   1.416       .  A
C1455      C1456   1.427       .  A
C1455      C1458   1.448       .  S
C1456      C1459   1.446       .  S
C1457      N1464   1.151       .  T
C1458      N1463   1.157       .  T
C1459      N1461   1.156       .  T
C1460      N1462   1.157       .  T
C1465      C1466   1.405   1_655  A
C1465      C1470   1.414       .  A
C1466      C1467   1.395       .  A
C1466      C1471   1.454       .  S
C1467      C1468   1.422   1_455  A
C1467      C1474   1.455       .  S
C1468      C1469   1.406       .  A
C1469      C1470   1.393       .  A
C1469      C1472   1.454       .  S
C1470      C1473   1.451       .  S
C1471      N1478   1.157       .  T
C1472      N1477   1.157       .  T
C1473      N1475   1.157       .  T
C1474      N1476   1.158       .  T
C1479      C1480   1.419       .  A
C1479      C1484   1.419       .  A
C1480      C1481   1.400       .  A
C1480      C1485   1.452       .  S
C1481      C1482   1.408       .  A
C1481      C1488   1.453       .  S
C1482      C1483   1.418       .  A
C1483      C1484   1.396       .  A
C1483      C1486   1.453       .  S
C1484      C1487   1.458   1_455  S
C1485      N1492   1.157       .  T
C1486      N1491   1.156   1_455  T
C1487      N1489   1.158       .  T
C1488      N1490   1.157       .  T
C1493      C1494   1.418       .  A
C1493      C1498   1.423       .  A
C1494      C1495   1.392       .  A
C1494      C1499   1.456       .  S
C1495      C1496   1.416       .  A
C1495      C1502   1.446       .  S
C1496      C1497   1.407       .  A
C1497      C1498   1.395       .  A
C1497      C1500   1.455       .  S
C1498      C1501   1.455       .  S
C1499      N1506   1.158       .  T
C1500      N1505   1.157       .  T
C1501      N1503   1.158       .  T
C1502      N1504   1.155   1_655  T
C1507      C1508   1.411   1_455  A
C1507      C1512   1.413       .  A
C1508      C1509   1.423       .  A
C1508      C1513   1.446       .  S
C1509      C1510   1.414   1_655  A
C1509      C1516   1.446       .  S
C1510      C1511   1.419       .  A
C1511      C1512   1.418       .  A
C1511      C1514   1.450       .  S
C1512      C1515   1.451       .  S
C1513      N1520   1.158       .  T
C1514      N1519   1.157       .  T
C1515      N1517   1.157       .  T
C1516      N1518   1.158       .  T
C1521      C1522   1.422   1_455  A
C1521      C1526   1.406       .  A
C1522      C1523   1.424       .  A
C1522      C1527   1.449       .  S
C1523      C1524   1.415   1_655  A
C1523      C1530   1.450       .  S
C1524      C1525   1.431       .  A
C1525      C1526   1.419       .  A
C1525      C1528   1.448       .  S
C1526      C1529   1.452       .  S
C1527      N1534   1.157       .  T
C1528      N1533   1.156       .  T
C1529      N1531   1.157       .  T
C1530      N1532   1.157       .  T
C1535      C1536   1.416   1_455  A
C1535      C1540   1.402       .  A
C1536      C1537   1.381       .  A
C1536      C1541   1.447       .  S
C1537      C1538   1.393   1_655  A
C1537      C1544   1.454       .  S
C1538      C1539   1.409       .  A
C1539      C1540   1.398       .  A
C1539      C1542   1.450       .  S
C1540      C1543   1.449       .  S
C1541      N1548   1.154       .  T
C1542      N1547   1.157       .  T
C1543      N1545   1.157       .  T
C1544      N1546   1.156       .  T
