geometry optimzed in LAMMPS
_audit_creation_date              2020-11-30 
_audit_creation_method            'lammps2cif' 
_symmetry_space_group_name_H-M    'P1' 
_symmetry_Int_Tables_number       1 
_symmetry_cell_setting            triclinic 
loop_ 
_symmetry_equiv_pos_as_xyz 
  x,y,z 
_cell_length_a                    74.32509531 
_cell_length_b                    74.10491573023359 
_cell_length_c                    74.12073059851352 
_cell_angle_alpha                 89.94428900319811 
_cell_angle_beta                  89.92768168554278 
_cell_angle_gamma                 90.01129615361121 
loop_ 
_atom_site_label 
_atom_site_type_symbol 
_atom_site_fract_x 
_atom_site_fract_y 
_atom_site_fract_z 
_atom_site_charge 
N1          N  0.52811893  0.08252898  0.50674936    -0.36100
N2          N  0.49882143  0.08014559  0.48101742    -0.56600
N3          N  0.47262450  0.08231639  0.50993462    -0.36100
N4          N  0.50200308  0.08360522  0.53580735    -0.56600
C5          C  0.53717041  0.07780968  0.49163778     0.27500
C6          C  0.53882800  0.07864830  0.52098145     0.27500
C7          C  0.46206211  0.07646418  0.49625801     0.27500
C8          C  0.46363236  0.07919859  0.52550370     0.27500
C9          C  0.51260667  0.08271909  0.46944617     0.36100
C10         C  0.48364733  0.08136115  0.47111744     0.36100
C11         C  0.51719889  0.08643826  0.54539495     0.36100
C12         C  0.48809359  0.08721457  0.54698709     0.36100
C13         C  0.55399472  0.07119694  0.49624889    -0.21300
C14         C  0.55501812  0.07164908  0.51479493    -0.21300
C15         C  0.44597678  0.06999240  0.50317949    -0.21300
C16         C  0.44696066  0.07171321  0.52164522    -0.21300
C17         C  0.50616222  0.08571561  0.45215103    -0.22400
C18         C  0.48778332  0.08474119  0.45319756    -0.22400
C19         C  0.51294601  0.09202136  0.56271622    -0.22400
C20         C  0.49448485  0.09253598  0.56372152    -0.22400
C21         C  0.53084917  0.07997373  0.47379091    -0.17800
C22         C  0.53470796  0.08212567  0.53931428    -0.17800
C23         C  0.46988275  0.08335257  0.54306125    -0.17700
C24         C  0.46628041  0.07749604  0.47766905    -0.17700
H25         H  0.56443365  0.06651529  0.48719666     0.15200
H26         H  0.56644382  0.06742724  0.52279498     0.15200
H27         H  0.43469884  0.06458663  0.49570562     0.15200
H28         H  0.43658334  0.06783067  0.53114518     0.15200
H29         H  0.51391441  0.08767602  0.43993199     0.13400
H30         H  0.47854902  0.08590410  0.44197639     0.13400
H31         H  0.52217558  0.09488438  0.57363004     0.13400
H32         H  0.48664925  0.09579731  0.57559700     0.13400
H33         H  0.51609707  0.08968843  0.50716798     0.26700
H34         H  0.48456578  0.08952700  0.50866887     0.26700
N35         N  0.11792305  0.46538591  0.52471989    -0.36100
N36         N  0.11521579  0.43438065  0.50035268    -0.56600
N37         N  0.11419990  0.45839122  0.46975842    -0.36100
N38         N  0.11594026  0.48926540  0.49418860    -0.56600
C39         C  0.11345762  0.45208597  0.53640409     0.27500
C40         C  0.11466823  0.48130145  0.53310866     0.27500
C41         C  0.10956938  0.44263285  0.46178983     0.27500
C42         C  0.10875800  0.47185361  0.45870483     0.27500
C43         C  0.11807736  0.42564617  0.51608799     0.36100
C44         C  0.11698360  0.42197560  0.48709513     0.36100
C45         C  0.11972088  0.50162661  0.50701603     0.36100
C46         C  0.11690209  0.49796885  0.47823171     0.36100
C47         C  0.10756964  0.45963923  0.55249129    -0.21300
C48         C  0.10838329  0.47807352  0.55042271    -0.21300
C49         C  0.10143582  0.44611556  0.44532681    -0.21300
C50         C  0.10083695  0.46456195  0.44342319    -0.21300
C51         C  0.12173883  0.40759183  0.51282747    -0.22400
C52         C  0.12106031  0.40526997  0.49442813    -0.22400
C53         C  0.12322513  0.51823995  0.49918600    -0.22400
C54         C  0.12145633  0.51592018  0.48091347    -0.22400
C55         C  0.11553187  0.43333592  0.53335570    -0.17800
C56         C  0.11762730  0.49865274  0.52567928    -0.17800
C57         C  0.11160544  0.49050898  0.46155380    -0.17700
C58         C  0.11294834  0.42517846  0.46873897    -0.17700
H59         H  0.10321171  0.45259814  0.56453005     0.15200
H60         H  0.10470335  0.48796439  0.56050870     0.15200
H61         H  0.09637336  0.43638597  0.43570511     0.15200
H62         H  0.09530466  0.47178015  0.43200517     0.15200
H63         H  0.12413641  0.39710027  0.52270634     0.13400
H64         H  0.12279275  0.39264292  0.48730627     0.13400
H65         H  0.12606970  0.53084866  0.50596940     0.13400
H66         H  0.12273265  0.52639728  0.47080636     0.13400
H67         H  0.12450154  0.46367017  0.51245544     0.26700
H68         H  0.12220151  0.45982796  0.48115595     0.26700
N69         N  0.50593902  0.84888993  0.52247949    -0.36100
N70         N  0.47568458  0.84309583  0.49807232    -0.56600
N71         N  0.50104652  0.83890590  0.46877656    -0.36100
N72         N  0.53144488  0.84271638  0.49339373    -0.56600
C73         C  0.49222005  0.84745864  0.53436795     0.27500
C74         C  0.52139465  0.84693796  0.53188570     0.27500
C75         C  0.48562766  0.83493190  0.45997752     0.27500
C76         C  0.51483368  0.83536826  0.45745402     0.27500
C77         C  0.46663545  0.84897206  0.51273339     0.36100
C78         C  0.46397438  0.84372096  0.48415714     0.36100
C79         C  0.54283136  0.84875875  0.50623605     0.36100
C80         C  0.54019112  0.84455170  0.47752457     0.36100
C81         C  0.49901459  0.84467438  0.55156166    -0.21300
C82         C  0.51745571  0.84430384  0.54998637    -0.21300
C83         C  0.48968753  0.82847925  0.44289263    -0.21300
C84         C  0.50814428  0.82881731  0.44127582    -0.21300
C85         C  0.44894803  0.85283477  0.50825144    -0.22400
C86         C  0.44726307  0.84952246  0.49012839    -0.22400
C87         C  0.55906966  0.85387315  0.49860740    -0.22400
C88         C  0.55739270  0.85123982  0.48038380    -0.22400
C89         C  0.47383503  0.84999967  0.53031680    -0.17800
C90         C  0.53891046  0.84929511  0.52483754    -0.17800
C91         C  0.53292883  0.84035902  0.46042559    -0.17700
C92         C  0.46807668  0.83905379  0.46612622    -0.17700
H93         H  0.49147404  0.84335501  0.56399572     0.15200
H94         H  0.52690775  0.84271353  0.56097223     0.15200
H95         H  0.48030022  0.82467630  0.43240933     0.15200
H96         H  0.51573798  0.82534601  0.42930218     0.15200
H97         H  0.43836624  0.85757032  0.51710633     0.13400
H98         H  0.43514077  0.85129518  0.48224610     0.13400
H99         H  0.57080072  0.85917452  0.50542955     0.13400
H100        H  0.56762039  0.85410277  0.47037207     0.13400
H101        H  0.50487397  0.85346057  0.50928140     0.26700
H102        H  0.50204541  0.84636352  0.48053067     0.26700
N103        N  0.87733567  0.46759036  0.47089605    -0.36100
N104        N  0.87971905  0.44142008  0.49988527    -0.56600
N105        N  0.87712118  0.47037613  0.52658830    -0.36100
N106        N  0.87607687  0.49657234  0.49750601    -0.56600
C107        C  0.88242501  0.45278863  0.46152365     0.27500
C108        C  0.88061070  0.48205457  0.46025826     0.27500
C109        C  0.88204512  0.45641204  0.53729352     0.27500
C110        C  0.88027852  0.48576284  0.53594604     0.27500
C111        C  0.87872413  0.42985387  0.48581922     0.36100
C112        C  0.87885345  0.43127787  0.51501865     0.36100
C113        C  0.87352991  0.50640451  0.48238225     0.36100
C114        C  0.87382025  0.50798559  0.51153500     0.36100
C115        C  0.88865289  0.45788632  0.44462080    -0.21300
C116        C  0.88751286  0.47636014  0.44382371    -0.21300
C117        C  0.88775651  0.46298383  0.55384288    -0.21300
C118        C  0.88669227  0.48146129  0.55297589    -0.21300
C119        C  0.87716030  0.41228587  0.49203794    -0.22400
C120        C  0.87730221  0.41318170  0.51054256    -0.22400
C121        C  0.86951681  0.52413066  0.48682472    -0.22400
C122        C  0.86972535  0.52513154  0.50531045    -0.22400
C123        C  0.88111178  0.43473497  0.46753303    -0.17800
C124        C  0.87704636  0.50023596  0.46470876    -0.17800
C125        C  0.87740245  0.50362575  0.52972922    -0.17700
C126        C  0.88145529  0.43785355  0.53272629    -0.17700
H127        H  0.89357703  0.44920685  0.43396460     0.15200
H128        H  0.89136248  0.48464781  0.43242158     0.15200
H129        H  0.89244087  0.45528588  0.56532956     0.15200
H130        H  0.89040426  0.49067718  0.56366294     0.15200
H131        H  0.87658841  0.40006082  0.48407843     0.13400
H132        H  0.87683428  0.40177321  0.51966165     0.13400
H133        H  0.86733133  0.53532148  0.47768879     0.13400
H134        H  0.86767937  0.53721198  0.51324867     0.13400
H135        H  0.87043660  0.46770992  0.48308783     0.26700
H136        H  0.87074791  0.46936268  0.51418042     0.26700
N137        N  0.49605538  0.49866394  0.12212973    -0.36100
N138        N  0.46820672  0.47175990  0.12542682    -0.56600
N139        N  0.49500375  0.44356685  0.13030924    -0.36100
N140        N  0.52282570  0.47056744  0.12638228    -0.56600
C141        C  0.48167375  0.50810521  0.11613597     0.27500
C142        C  0.51092610  0.50731709  0.11610705     0.27500
C143        C  0.48033610  0.43362653  0.12613910     0.27500
C144        C  0.50949885  0.43300210  0.12709702     0.27500
C145        C  0.45773656  0.48662686  0.12540434     0.36100
C146        C  0.45721061  0.45769538  0.12886685     0.36100
C147        C  0.53372138  0.48512764  0.12658072     0.36100
C148        C  0.53312360  0.45628461  0.13096141     0.36100
C149        C  0.48744544  0.52308882  0.10653605    -0.21300
C150        C  0.50593672  0.52255354  0.10645448    -0.21300
C151        C  0.48554578  0.41645053  0.12085638    -0.21300
C152        C  0.50396515  0.41607341  0.12141888    -0.21300
C153        C  0.44002885  0.48201768  0.12911231    -0.22400
C154        C  0.43968651  0.46362298  0.13121276    -0.22400
C155        C  0.55097866  0.48012307  0.13162489    -0.22400
C156        C  0.55061382  0.46179069  0.13430436    -0.22400
C157        C  0.46349467  0.50378943  0.11956133    -0.17800
C158        C  0.52886654  0.50229144  0.11990238    -0.17800
C159        C  0.52761053  0.43817749  0.12925516    -0.17700
C160        C  0.46233129  0.43950181  0.12722841    -0.17700
H161        H  0.47919539  0.53331049  0.10018378     0.15200
H162        H  0.51470911  0.53232859  0.10007983     0.15200
H163        H  0.47699046  0.40535567  0.11680172     0.15200
H164        H  0.51231904  0.40465845  0.11784445     0.15200
H165        H  0.42844496  0.49086552  0.12939691     0.13400
H166        H  0.42781046  0.45546411  0.13346579     0.13400
H167        H  0.56277604  0.48864754  0.13245107     0.13400
H168        H  0.56205155  0.45335667  0.13755494     0.13400
H169        H  0.49576232  0.48814737  0.13121463     0.26700
H170        H  0.49505625  0.45615239  0.13617779     0.26700
N171        N  0.49751318  0.49532015  0.89179424    -0.36100
N172        N  0.52389893  0.46620376  0.89136516    -0.56600
N173        N  0.49486066  0.44052395  0.89045395    -0.36100
N174        N  0.46842985  0.46964892  0.88918956    -0.56600
C175        C  0.51282986  0.50471247  0.88894141     0.27500
C176        C  0.48360764  0.50653134  0.88823186     0.27500
C177        C  0.50897059  0.42939823  0.88746509     0.27500
C178        C  0.47977246  0.43121619  0.88649924     0.27500
C179        C  0.53482581  0.48017454  0.89534232     0.36100
C180        C  0.53338151  0.45104374  0.89478171     0.36100
C181        C  0.45870075  0.48464541  0.89263006     0.36100
C182        C  0.45729529  0.45554834  0.89201278     0.36100
C183        C  0.50862493  0.52213151  0.88352383    -0.21300
C184        C  0.49015138  0.52329921  0.88314912    -0.21300
C185        C  0.50277679  0.41280103  0.88150418    -0.21300
C186        C  0.48430399  0.41392228  0.88096764    -0.21300
C187        C  0.55144234  0.47389889  0.90104908    -0.22400
C188        C  0.55051254  0.45540000  0.90073717    -0.22400
C189        C  0.44117750  0.48008367  0.89713614    -0.22400
C190        C  0.44029554  0.46160208  0.89678606    -0.22400
C191        C  0.53038735  0.49849234  0.89275188    -0.17800
C192        C  0.46526843  0.50242612  0.89105149    -0.17800
C193        C  0.46205703  0.43729147  0.88967124    -0.17700
C194        C  0.52709742  0.43335744  0.89156610    -0.17700
H195        H  0.51790062  0.53301244  0.88059519     0.15200
H196        H  0.48243595  0.53523321  0.87984403     0.15200
H197        H  0.51071199  0.40096271  0.87837253     0.15200
H198        H  0.47522162  0.40309872  0.87735011     0.15200
H199        H  0.56305498  0.48181974  0.90489816     0.13400
H200        H  0.56126154  0.44622343  0.90432193     0.13400
H201        H  0.43018538  0.48910861  0.90034912     0.13400
H202        H  0.42848370  0.45355041  0.89967432     0.13400
H203        H  0.49662204  0.48292094  0.89822709     0.26700
H204        H  0.49527109  0.45271096  0.89728786     0.26700
N205        N  0.99809345  0.57091902  0.02709516    -0.36100
N206        N  0.97260941  0.57905417  0.99880197    -0.56600
N207        N  0.00232209  0.58540057  0.97395307    -0.36100
N208        N  0.02780683  0.57635664  0.00235605    -0.56600
C209        C  0.98348678  0.57582271  0.03680954     0.27500
C210        C  0.01232627  0.57160961  0.03837470     0.27500
C211        C  0.98878862  0.58372249  0.96187169     0.27500
C212        C  0.01793367  0.58551043  0.96452093     0.27500
C213        C  0.96092253  0.57548200  0.01229871     0.36100
C214        C  0.96301615  0.57899546  0.98338460     0.36100
C215        C  0.03694913  0.57518496  0.01802038     0.36100
C216        C  0.03870594  0.58499096  0.99062366     0.36100
C217        C  0.98857931  0.58009622  0.05428274    -0.21300
C218        C  0.00691435  0.57791676  0.05512472    -0.21300
C219        C  0.99592340  0.58379684  0.94453047    -0.21300
C220        C  0.01429668  0.58481317  0.94621791    -0.21300
C221        C  0.94370872  0.57337880  0.00553016    -0.22400
C222        C  0.94503751  0.57549832  0.98716773    -0.22400
C223        C  0.05312829  0.58441818  0.01660666    -0.22400
C224        C  0.05457090  0.58996909  0.99898144    -0.22400
C225        C  0.96556510  0.57501146  0.03071011    -0.17800
C226        C  0.03007332  0.56674117  0.03368106    -0.17800
C227        C  0.03538543  0.58631112  0.97200968    -0.17700
C228        C  0.97025687  0.58126244  0.96585515    -0.17700
H229        H  0.97999692  0.58430881  0.06530070     0.15200
H230        H  0.01528229  0.58034847  0.06681381     0.15200
H231        H  0.98869490  0.58275167  0.93190929     0.15200
H232        H  0.02388022  0.58482805  0.93520917     0.15200
H233        H  0.93151057  0.57057155  0.01301589     0.13400
H234        H  0.93402404  0.57442637  0.97768970     0.13400
H235        H  0.06289505  0.58689059  0.02713132     0.13400
H236        H  0.06587877  0.59698998  0.99300934     0.13400
H237        H  0.99815264  0.56527256  0.01421876     0.26700
H238        H  0.00109306  0.58705217  0.98779426     0.26700
N239        N  0.62348252  0.94321094  0.99643681    -0.36100
N240        N  0.62884631  0.96945614  0.02504835    -0.56600
N241        N  0.63754368  0.01041171  0.99743535    -0.36100
N242        N  0.63451683  0.96878004  0.96854273    -0.56600
C243        C  0.62139570  0.93253641  0.01119436     0.27500
C244        C  0.62462031  0.93221511  0.98184775     0.27500
C245        C  0.64408591  0.00234643  0.01241331     0.27500
C246        C  0.64571803  0.00225078  0.98334583     0.27500
C247        C  0.62095696  0.95647694  0.03498302     0.36100
C248        C  0.62873849  0.98458445  0.03519152     0.36100
C249        C  0.62826369  0.95562749  0.95779232     0.36100
C250        C  0.63471414  0.98403873  0.95857857     0.36100
C251        C  0.62115717  0.91459955  0.00585840    -0.21300
C252        C  0.62323645  0.91439921  0.98741579    -0.21300
C253        C  0.65757181  0.99029021  0.00790389    -0.21300
C254        C  0.65873634  0.99035281  0.98948317    -0.21300
C255        C  0.61622774  0.96329267  0.05180029    -0.22400
C256        C  0.62089751  0.98127820  0.05179136    -0.22400
C257        C  0.62508894  0.96238499  0.94059449    -0.22400
C258        C  0.62888433  0.98057552  0.94120452    -0.22400
C259        C  0.61852770  0.93847994  0.02921363    -0.17800
C260        C  0.62505238  0.93775282  0.96349240    -0.17800
C261        C  0.63799843  0.00114878  0.96613504    -0.17700
C262        C  0.63449584  0.00145214  0.02862885    -0.17700
H263        H  0.61930776  0.90283567  0.01432282     0.15200
H264        H  0.62324073  0.90247384  0.97899285     0.15200
H265        H  0.66440321  0.98102474  0.01688189     0.15200
H266        H  0.66668350  0.98113258  0.98142838     0.15200
H267        H  0.60978821  0.95617146  0.06280397     0.13400
H268        H  0.61872362  0.99080468  0.06263723     0.13400
H269        H  0.61985947  0.95514197  0.92906142     0.13400
H270        H  0.62715591  0.99018698  0.93033714     0.13400
H271        H  0.62227506  0.95717487  0.99610889     0.26700
H272        H  0.62580160  0.01814438  0.99676760     0.26700
N273        N  0.97942339  0.36656104  0.00339382    -0.36100
N274        N  0.00769898  0.36123973  0.02977002    -0.56600
N275        N  0.03442554  0.36535151  0.00117031    -0.36100
N276        N  0.00612526  0.36894827  0.97468109    -0.56600
C277        C  0.96957134  0.36114349  0.01778803     0.27500
C278        C  0.96868673  0.36555605  0.98870383     0.27500
C279        C  0.04484876  0.35965916  0.01496865     0.27500
C280        C  0.04390119  0.36279492  0.98577486     0.27500
C281        C  0.99355348  0.36273857  0.04115165     0.36100
C282        C  0.02266126  0.36291825  0.03995611     0.36100
C283        C  0.99137376  0.37413319  0.96540405     0.36100
C284        C  0.02046231  0.37271286  0.96408453     0.36100
C285        C  0.95229167  0.35685942  0.01221897    -0.21300
C286        C  0.95174714  0.35957741  0.99385622    -0.21300
C287        C  0.06119481  0.35355535  0.00832562    -0.21300
C288        C  0.06056912  0.35546889  0.98987040    -0.21300
C289        C  0.99954552  0.36505973  0.05869422    -0.22400
C290        C  0.01800994  0.36521190  0.05793495    -0.22400
C291        C  0.99636097  0.38118642  0.94879712    -0.22400
C292        C  0.01481134  0.38025786  0.94795264    -0.22400
C293        C  0.97531064  0.36138175  0.03599121    -0.17800
C294        C  0.97344081  0.37094985  0.97098053    -0.17800
C295        C  0.03845218  0.36824712  0.96832385    -0.17700
C296        C  0.04043815  0.36094302  0.03345917    -0.17700
H297        H  0.94116066  0.35245545  0.02056486     0.15200
H298        H  0.94009905  0.35764753  0.98532337     0.15200
H299        H  0.07246587  0.34841003  0.01599928     0.15200
H300        H  0.07128952  0.35214601  0.98055257     0.15200
H301        H  0.99146864  0.36641702  0.07077868     0.13400
H302        H  0.02698366  0.36659812  0.06934199     0.13400
H303        H  0.98759053  0.38614134  0.93825107     0.13400
H304        H  0.02309472  0.38441397  0.93666884     0.13400
H305        H  0.99197157  0.37266110  0.00386872     0.26700
H306        H  0.02255801  0.37262585  0.00246131     0.26700
N307        N  0.38082980  0.99264166  0.99857422    -0.36100
N308        N  0.37764900  0.96509733  0.02658464    -0.56600
N309        N  0.37848191  0.93777001  0.99860264    -0.36100
N310        N  0.38001975  0.96543132  0.97064488    -0.56600
C311        C  0.37762850  0.00305265  0.01318637     0.27500
C312        C  0.37886760  0.00318337  0.98378802     0.27500
C313        C  0.37398838  0.92763112  0.01309972     0.27500
C314        C  0.37519517  0.92780089  0.98370341     0.27500
C315        C  0.38179911  0.97954962  0.03690331     0.36100
C316        C  0.38067610  0.95030283  0.03685183     0.36100
C317        C  0.38509036  0.97981106  0.96063249     0.36100
C318        C  0.38389876  0.95067162  0.96071984     0.36100
C319        C  0.37353511  0.02045544  0.00762876    -0.21300
C320        C  0.37429547  0.02052713  0.98905348    -0.21300
C321        C  0.36761772  0.91100999  0.00734563    -0.21300
C322        C  0.36842605  0.91110284  0.98875480    -0.21300
C323        C  0.38708490  0.97394483  0.05393456    -0.22400
C324        C  0.38645805  0.95540979  0.05388002    -0.22400
C325        C  0.39191716  0.97418913  0.94417143    -0.22400
C326        C  0.39119715  0.95569516  0.94423708    -0.22400
C327        C  0.38040620  0.99776348  0.03132021    -0.17800
C328        C  0.38299774  0.99798255  0.96589854    -0.17800
C329        C  0.38000444  0.93276451  0.96590852    -0.17700
C330        C  0.37751398  0.93229472  0.03127207    -0.17700
H331        H  0.37083814  0.03203381  0.01610118     0.15200
H332        H  0.37229077  0.03215092  0.98043370     0.15200
H333        H  0.36343025  0.89977618  0.01570050     0.15200
H334        H  0.36495079  0.89997060  0.97998051     0.15200
H335        H  0.39108495  0.98232763  0.06518790     0.13400
H336        H  0.38986549  0.94670746  0.06510201     0.13400
H337        H  0.39693193  0.98253343  0.93327737     0.13400
H338        H  0.39551340  0.94695372  0.93337078     0.13400
H339        H  0.38663543  0.97990518  0.99883213     0.26700
H340        H  0.38589753  0.94964957  0.99893065     0.26700
N341        N  0.96681227  0.97258141  0.61262886    -0.36100
N342        N  0.99565170  0.99889850  0.61580712    -0.56600
N343        N  0.02178518  0.97001336  0.61792968    -0.36100
N344        N  0.99300345  0.94372712  0.61356050    -0.56600
C345        C  0.95794102  0.98786784  0.60812860     0.27500
C346        C  0.95662446  0.95852340  0.60704881     0.27500
C347        C  0.03280114  0.98427969  0.61519572     0.27500
C348        C  0.03134392  0.95502222  0.61394929     0.27500
C349        C  0.98143918  0.01018515  0.61694191     0.36100
C350        C  0.01042139  0.00884124  0.61954993     0.36100
C351        C  0.97786005  0.93371033  0.61445492     0.36100
C352        C  0.00679111  0.93241319  0.61701970     0.36100
C353        C  0.94179837  0.98347228  0.59985309    -0.21300
C354        C  0.94098673  0.96494464  0.59913550    -0.21300
C355        C  0.04965816  0.97824658  0.60986667    -0.21300
C356        C  0.04872122  0.95978279  0.60902782    -0.21300
C357        C  0.98721260  0.02739662  0.62145833    -0.22400
C358        C  0.00560346  0.02654282  0.62307734    -0.22400
C359        C  0.98203068  0.91594446  0.61856310    -0.22400
C360        C  0.00041980  0.91511151  0.62012892    -0.22400
C361        C  0.96364961  0.00565655  0.61199170    -0.17800
C362        C  0.96057661  0.94005969  0.60983472    -0.17800
C363        C  0.02509101  0.93709290  0.61537243    -0.17700
C364        C  0.02827305  0.00258883  0.61785445    -0.17700
H365        H  0.93161457  0.99265360  0.59489380     0.15200
H366        H  0.93005852  0.95709215  0.59353528     0.15200
H367        H  0.06143791  0.98629286  0.60683801     0.15200
H368        H  0.05963942  0.95088167  0.60525704     0.15200
H369        H  0.97908873  0.03943546  0.62286832     0.13400
H370        H  0.01446200  0.03775865  0.62599651     0.13400
H371        H  0.97283830  0.90467671  0.61977334     0.13400
H372        H  0.00824851  0.90308341  0.62277908     0.13400
H373        H  0.97814246  0.97178468  0.62077995     0.26700
H374        H  0.00909549  0.97035875  0.62380740     0.26700
N375        N  0.02461987  0.96699005  0.38891145    -0.36100
N376        N  0.99558001  0.94095547  0.39011188    -0.56600
N377        N  0.96934030  0.97009377  0.38953030    -0.36100
N378        N  0.99829717  0.99605266  0.38970936    -0.56600
C379        C  0.03392708  0.95187917  0.39309626     0.27500
C380        C  0.03536781  0.98119790  0.39266722     0.27500
C381        C  0.95850860  0.95588444  0.39308440     0.27500
C382        C  0.96011027  0.98522444  0.39385029     0.27500
C383        C  0.00954422  0.92950511  0.38794682     0.36100
C384        C  0.98053060  0.93114642  0.38740245     0.36100
C385        C  0.01331327  0.00587459  0.38702145     0.36100
C386        C  0.98436841  0.00756500  0.38793448     0.36100
C387        C  0.05098149  0.95651629  0.39906867    -0.21300
C388        C  0.05188609  0.97504366  0.39882551    -0.21300
C389        C  0.94201566  0.96206003  0.39932912    -0.21300
C390        C  0.94306404  0.98058878  0.39990296    -0.21300
C391        C  0.00336685  0.91232792  0.38398961    -0.22400
C392        C  0.98495923  0.91336449  0.38362706    -0.22400
C393        C  0.00892257  0.02371076  0.38344609    -0.22400
C394        C  0.99052950  0.02478354  0.38402953    -0.22400
C395        C  0.02771177  0.93400081  0.39096033    -0.17800
C396        C  0.03086658  0.99955692  0.39023875    -0.17800
C397        C  0.96633016  0.00311816  0.39160318    -0.17700
C398        C  0.96285815  0.93755747  0.39006399    -0.17700
H399        H  0.06166571  0.94749471  0.40319750     0.15200
H400        H  0.06341280  0.98306010  0.40273822     0.15200
H401        H  0.93040326  0.95407074  0.40306886     0.15200
H402        H  0.93242014  0.98961940  0.40413044     0.15200
H403        H  0.01128360  0.90024786  0.38191139     0.13400
H404        H  0.97587867  0.90219323  0.38128843     0.13400
H405        H  0.01804728  0.03489541  0.38128513     0.13400
H406        H  0.98263060  0.03693567  0.38232406     0.13400
H407        H  0.01233495  0.96755471  0.38228531     0.26700
H408        H  0.98154113  0.96950319  0.38273071     0.26700
C409        C  0.65382028  0.87031879  0.64038318     0.80800
N410        N  0.65667390  0.88802731  0.64445487    -0.77500
C411        C  0.64811742  0.90120947  0.63489450     0.83200
N412        N  0.63651567  0.89639984  0.62154377    -0.77500
C413        C  0.63377535  0.87878253  0.61745350     0.83300
N414        N  0.64240679  0.86580180  0.62689347    -0.79200
C415        C  0.65910757  0.06698529  0.64813892     0.80800
N416        N  0.66208484  0.04903903  0.65101737    -0.77500
C417        C  0.65186155  0.03645726  0.64245104     0.83200
N418        N  0.63912477  0.04184372  0.63056250    -0.77500
C419        C  0.63611383  0.05957247  0.62746080     0.83300
N420        N  0.64593787  0.07214446  0.63643935    -0.79200
C421        C  0.90453808  0.62335938  0.64158461     0.80800
N422        N  0.89806336  0.61006580  0.63078817    -0.77500
C423        C  0.90945319  0.60021068  0.62043509     0.83200
N424        N  0.92737229  0.60365463  0.62099820    -0.77500
C425        C  0.93397395  0.61706642  0.63159322     0.83300
N426        N  0.92247368  0.62694613  0.64189825    -0.79200
C427        C  0.09926115  0.61958067  0.63785332     0.80800
N428        N  0.08125387  0.62162496  0.64041492    -0.77500
C429        C  0.06938502  0.61220403  0.63012879     0.83200
N430        N  0.07560276  0.60079704  0.61720982    -0.77500
C431        C  0.09353742  0.59874570  0.61453607     0.83300
N432        N  0.10533010  0.60801676  0.62496551    -0.79200
C433        C  0.64677125  0.61587869  0.89974034     0.80800
N434        N  0.64966954  0.61953864  0.91749786    -0.77500
C435        C  0.64014363  0.61062946  0.93042350     0.83200
N436        N  0.62812816  0.59781208  0.92543494    -0.77500
C437        C  0.62504027  0.59429483  0.90781088     0.83300
N438        N  0.63430837  0.60337001  0.89490957    -0.79200
C439        C  0.65151440  0.60930016  0.09508570     0.80800
N440        N  0.65423179  0.61238701  0.07723144    -0.77500
C441        C  0.64598625  0.60203056  0.06463847     0.83200
N442        N  0.63451096  0.58882883  0.06998283    -0.77500
C443        C  0.63136092  0.58583975  0.08776451     0.83300
N444        N  0.64026492  0.59577999  0.10024028    -0.79200
C445        C  0.89820820  0.61759414  0.35012313     0.80800
N446        N  0.89163115  0.60618543  0.36285800    -0.77500
C447        C  0.90293341  0.59735739  0.37408813     0.83200
N448        N  0.92090957  0.59957495  0.37235387    -0.77500
C449        C  0.92773062  0.61030580  0.35917255     0.83300
N450        N  0.91632040  0.61947131  0.34810087    -0.79200
C451        C  0.09279773  0.60641135  0.34567276     0.80800
N452        N  0.09760949  0.59201668  0.35590287    -0.77500
C453        C  0.08495593  0.58232708  0.36483335     0.83200
N454        N  0.06740317  0.58701118  0.36339334    -0.77500
C455        C  0.06242470  0.60143532  0.35327399     0.83300
N456        N  0.07516740  0.61120023  0.34441864    -0.79200
C457        C  0.64248426  0.87070233  0.34271397     0.80800
N458        N  0.62928664  0.86526886  0.35412465    -0.77500
C459        C  0.61846368  0.87752033  0.36217107     0.83200
N460        N  0.62092055  0.89534060  0.35899025    -0.77500
C461        C  0.63397116  0.90100438  0.34745442     0.83300
N462        N  0.64480261  0.88861831  0.33931043    -0.79200
C463        C  0.64270289  0.06644078  0.35369975     0.80800
N464        N  0.62928059  0.07133423  0.36509498    -0.77500
C465        C  0.61817832  0.05863501  0.37210429     0.83200
N466        N  0.62072028  0.04102144  0.36794092    -0.77500
C467        C  0.63459763  0.03586909  0.35715549     0.83300
N468        N  0.64543602  0.04872090  0.34982888    -0.79200
C469        C  0.90436332  0.33092472  0.65621119     0.80800
N470        N  0.90019671  0.34238689  0.64251507    -0.77500
C471        C  0.91335160  0.35167561  0.63386776     0.83200
N472        N  0.93073797  0.34947561  0.63889950    -0.77500
C473        C  0.93511674  0.33796741  0.65249297     0.83300
N474        N  0.92187517  0.32867639  0.66113779    -0.79200
C475        C  0.09972729  0.33186030  0.66389603     0.80800
N476        N  0.10617656  0.34380759  0.65158542    -0.77500
C477        C  0.09463073  0.35316244  0.64097249     0.83200
N478        N  0.07663610  0.35062026  0.64277560    -0.77500
C479        C  0.07006758  0.33841294  0.65477355     0.83300
N480        N  0.08172318  0.32897881  0.66527065    -0.79200
C481        C  0.35610429  0.86787099  0.64319212     0.80800
N482        N  0.36931745  0.86377527  0.63123464    -0.77500
C483        C  0.37882437  0.87711339  0.62315149     0.83200
N484        N  0.37486676  0.89461184  0.62664120    -0.77500
C485        C  0.36141554  0.89882808  0.63829629     0.83300
N486        N  0.35224444  0.88541732  0.64667248    -0.79200
C487        C  0.35004880  0.06279843  0.65556260     0.80800
N488        N  0.36366477  0.06841737  0.64459755    -0.77500
C489        C  0.37411006  0.05618012  0.63586157     0.83200
N490        N  0.37103452  0.03831675  0.63830633    -0.77500
C491        C  0.35777627  0.03256844  0.64954078     0.83300
N492        N  0.34720671  0.04484369  0.65805604    -0.79200
C493        C  0.64811023  0.32174955  0.90861165     0.80800
N494        N  0.64959172  0.31779688  0.92654537    -0.77500
C495        C  0.63902235  0.32640434  0.93890962     0.83200
N496        N  0.62700970  0.33893384  0.93306860    -0.77500
C497        C  0.62508845  0.34255158  0.91523243     0.83300
N498        N  0.63567097  0.33397144  0.90306729    -0.79200
C499        C  0.64657588  0.32724115  0.10525014     0.80800
N500        N  0.64978279  0.32388553  0.08746570    -0.77500
C501        C  0.63959778  0.33212733  0.07457873     0.83200
N502        N  0.62618274  0.34359313  0.07961480    -0.77500
C503        C  0.62299878  0.34690769  0.09736662     0.83300
N504        N  0.63327820  0.33876607  0.11000725    -0.79200
C505        C  0.35161849  0.62181780  0.89792849     0.80800
N506        N  0.36483670  0.60967318  0.89436755    -0.77500
C507        C  0.37341275  0.60117374  0.90801459     0.83200
N508        N  0.36932137  0.60530635  0.92528121    -0.77500
C509        C  0.35682609  0.61808195  0.92904058     0.83300
N510        N  0.34767814  0.62610630  0.91535023    -0.79200
C511        C  0.34160274  0.61071305  0.09241758     0.80800
N512        N  0.35434724  0.59868480  0.09759579    -0.77500
C513        C  0.36554933  0.59127520  0.08523866     0.83200
N514        N  0.36388980  0.59584616  0.06762229    -0.77500
C515        C  0.35083771  0.60745534  0.06222220     0.83300
N516        N  0.33973539  0.61494897  0.07469456    -0.79200
C517        C  0.34601059  0.85772273  0.35631248     0.80800
N518        N  0.34478432  0.87590890  0.35346526    -0.77500
C519        C  0.35407689  0.88759496  0.36422940     0.83200
N520        N  0.36435474  0.88086125  0.37778933    -0.77500
C521        C  0.36621382  0.86283856  0.38014560     0.83300
N522        N  0.35703153  0.85133066  0.36941605    -0.79200
C523        C  0.35768341  0.05420858  0.35471379     0.80800
N524        N  0.36841516  0.05971836  0.36855507    -0.77500
C525        C  0.37543216  0.04758335  0.38035364     0.83200
N526        N  0.37156009  0.02980359  0.37846614    -0.77500
C527        C  0.36092724  0.02402651  0.36474111     0.83300
N528        N  0.35414322  0.03625496  0.35280696    -0.79200
C529        C  0.90152078  0.31492458  0.35646320     0.80800
N530        N  0.91932949  0.31163214  0.35350244    -0.77500
C531        C  0.93205462  0.32310765  0.36019875     0.83200
N532        N  0.92667646  0.33786917  0.36968424    -0.77500
C533        C  0.90901674  0.34075438  0.37320494     0.83300
N534        N  0.89655473  0.32920250  0.36671153    -0.79200
C535        C  0.09656408  0.30036381  0.36082534     0.80800
N536        N  0.10084108  0.31348294  0.37290551    -0.77500
C537        C  0.08789402  0.32444107  0.37972091     0.83200
N538        N  0.07057363  0.32227282  0.37439226    -0.77500
C539        C  0.06606011  0.30892695  0.36268600     0.83300
N540        N  0.07907478  0.29793041  0.35589228    -0.79200
C541        C  0.35246718  0.31593523  0.90859510     0.80800
N542        N  0.36380106  0.32915063  0.90301549    -0.77500
C543        C  0.37060030  0.34105813  0.91500274     0.83200
N544        N  0.36628622  0.33969027  0.93267764    -0.77500
C545        C  0.35509827  0.32643638  0.93847672     0.83300
N546        N  0.34811213  0.31453419  0.92638672    -0.79200
C547        C  0.34888014  0.32241462  0.10428162     0.80800
N548        N  0.34711109  0.31876929  0.08638001    -0.77500
C549        C  0.35735994  0.32772276  0.07403157     0.83200
N550        N  0.36931263  0.34028216  0.07984690    -0.77500
C551        C  0.37141804  0.34361584  0.09765544     0.83300
N552        N  0.36114072  0.33475906  0.10988386    -0.79200
C553        C  0.14611385  0.36011004  0.16000796     0.80800
N554        N  0.13461688  0.35462631  0.14685370    -0.77500
C555        C  0.12390579  0.36679959  0.13840594     0.83200
N556        N  0.12493136  0.38446545  0.14289395    -0.77500
C557        C  0.13670900  0.39013072  0.15562288     0.83300
N558        N  0.14724652  0.37791504  0.16425351    -0.79200
C559        C  0.13132495  0.55418339  0.16018426     0.80800
N560        N  0.12042690  0.55606258  0.14564439    -0.77500
C561        C  0.11072587  0.54198996  0.13928999     0.83200
N562        N  0.11189027  0.52586521  0.14770174    -0.77500
C563        C  0.12302195  0.52335671  0.16192490     0.83300
N564        N  0.13275634  0.53764947  0.16825355    -0.79200
C565        C  0.40492179  0.12039989  0.14064890     0.80800
N566        N  0.42259379  0.12516274  0.14003883    -0.77500
C567        C  0.43420705  0.11621841  0.12902043     0.83200
N568        N  0.42799485  0.10243478  0.11863377    -0.77500
C569        C  0.41035402  0.09767741  0.11911980     0.83300
N570        N  0.39885875  0.10670475  0.13008853    -0.79200
C571        C  0.59968955  0.12207629  0.13493398     0.80800
N572        N  0.58156304  0.12501169  0.13593888    -0.77500
C573        C  0.56993760  0.11528228  0.12552389     0.83200
N574        N  0.57658724  0.10291094  0.11377947    -0.77500
C575        C  0.59453222  0.09996465  0.11259983     0.83300
N576        N  0.60597817  0.10936032  0.12329282    -0.79200
C577        C  0.40659035  0.11486363  0.85050819     0.80800
N578        N  0.42438753  0.11882785  0.84833420    -0.77500
C579        C  0.43713209  0.10888524  0.85706472     0.83200
N580        N  0.43197749  0.09502563  0.86801120    -0.77500
C581        C  0.41424427  0.09135970  0.87065340     0.83300
N582        N  0.40169249  0.10130939  0.86186273    -0.79200
C583        C  0.60338081  0.11649445  0.85683194     0.80800
N584        N  0.58563473  0.12020896  0.85377869    -0.77500
C585        C  0.57258519  0.11076018  0.86273126     0.83200
N586        N  0.57752103  0.09776843  0.87468627    -0.77500
C587        C  0.59507168  0.09437408  0.87804808     0.83300
N588        N  0.60795141  0.10369775  0.86911016    -0.79200
C589        C  0.39820601  0.81500671  0.14655246     0.80800
N590        N  0.39192318  0.82892522  0.13644857    -0.77500
C591        C  0.40349497  0.84016770  0.12787755     0.83200
N592        N  0.42145321  0.83759085  0.12963740    -0.77500
C593        C  0.42801964  0.82340084  0.13921428     0.83300
N594        N  0.41626143  0.81202216  0.14763435    -0.79200
C595        C  0.59375629  0.82717625  0.14836943     0.80800
N596        N  0.59826645  0.84015135  0.13619804    -0.77500
C597        C  0.58536730  0.84888445  0.12667742     0.83200
N598        N  0.56779987  0.84515342  0.12977519    -0.77500
C599        C  0.56299840  0.83276967  0.14238973     0.83300
N600        N  0.57602464  0.82356078  0.15143640    -0.79200
C601        C  0.85351665  0.36716318  0.14842253     0.80800
N602        N  0.86608073  0.36163296  0.13630292    -0.77500
C603        C  0.87522173  0.37395001  0.12636834     0.83200
N604        N  0.87163207  0.39173201  0.12834881    -0.77500
C605        C  0.85949039  0.39756215  0.14071722     0.83300
N606        N  0.85048282  0.38513947  0.15082868    -0.79200
C607        C  0.84470435  0.56317595  0.14403500     0.80800
N608        N  0.85768064  0.56842149  0.13218085    -0.77500
C609        C  0.86706785  0.55589889  0.12274990     0.83200
N610        N  0.86342082  0.53816647  0.12511319    -0.77500
C611        C  0.85036649  0.53275766  0.13668886     0.83300
N612        N  0.84103330  0.54530042  0.14627917    -0.79200
C613        C  0.85232358  0.12020998  0.40227032     0.80800
N614        N  0.86582549  0.10836313  0.39906986    -0.77500
C615        C  0.87499565  0.10082807  0.41284600     0.83200
N616        N  0.87150418  0.10592044  0.43000928    -0.77500
C617        C  0.85883652  0.11867188  0.43339463     0.83300
N618        N  0.84889035  0.12540764  0.41955321    -0.79200
C619        C  0.86190405  0.13502931  0.59673970     0.80800
N620        N  0.87348923  0.12164689  0.60136701    -0.77500
C621        C  0.88051964  0.11071678  0.58852467     0.83200
N622        N  0.87591594  0.11314491  0.57099494    -0.77500
C623        C  0.86433300  0.12649925  0.56617741     0.83300
N624        N  0.85726372  0.13737043  0.57915772    -0.79200
C625        C  0.14113059  0.81341718  0.40162165     0.80800
N626        N  0.14420284  0.81098032  0.41962602    -0.77500
C627        C  0.13486580  0.82082207  0.43204069     0.83200
N628        N  0.12227430  0.83274289  0.42636422    -0.77500
C629        C  0.11926484  0.83537045  0.40859347     0.83300
N630        N  0.12879498  0.82587765  0.39623276    -0.79200
C631        C  0.14242005  0.82336810  0.59720265     0.80800
N632        N  0.12906864  0.83468055  0.60240996    -0.77500
C633        C  0.11827506  0.84245636  0.58995118     0.83200
N634        N  0.12063903  0.83871758  0.57217945    -0.77500
C635        C  0.13362893  0.82693595  0.56687871     0.83300
N636        N  0.14465065  0.81954260  0.57943635    -0.79200
C637        C  0.85188775  0.37436271  0.85869630     0.80800
N638        N  0.86479644  0.37091003  0.87117541    -0.77500
C639        C  0.87351065  0.38468557  0.87941729     0.83200
N640        N  0.86902658  0.40194247  0.87526128    -0.77500
C641        C  0.85606150  0.40555171  0.86288396     0.83300
N642        N  0.84764233  0.39169246  0.85449420    -0.79200
C643        C  0.85924079  0.56855484  0.84446845     0.80800
N644        N  0.85536880  0.55087236  0.84188789    -0.77500
C645        C  0.86461962  0.53792864  0.85078903     0.83200
N646        N  0.87761047  0.54275491  0.86266371    -0.77500
C647        C  0.88173823  0.56037340  0.86522922     0.83300
N648        N  0.87262806  0.57329616  0.85603008    -0.79200
C649        C  0.84578252  0.82116126  0.39679097     0.80800
N650        N  0.85715610  0.83459916  0.39172675    -0.77500
C651        C  0.86462945  0.84551137  0.40430700     0.83200
N652        N  0.86069164  0.84306470  0.42199322    -0.77500
C653        C  0.84949859  0.82956474  0.42719872     0.83300
N654        N  0.84218773  0.81851430  0.41459364    -0.79200
C655        C  0.84227746  0.82616387  0.59247471     0.80800
N656        N  0.84007817  0.82267355  0.57459143    -0.77500
C657        C  0.84845457  0.83303198  0.56197497     0.83200
N658        N  0.85872526  0.84715878  0.56736645    -0.77500
C659        C  0.86127221  0.85055623  0.58511945     0.83300
N660        N  0.85312939  0.83997373  0.59763100    -0.79200
C661        C  0.40236274  0.81832994  0.84810378     0.80800
N662        N  0.39628544  0.83068455  0.86019920    -0.77500
C663        C  0.40802167  0.84031213  0.87035716     0.83200
N664        N  0.42597807  0.83724019  0.86871810    -0.77500
C665        C  0.43216979  0.82464936  0.85691780     0.83300
N666        N  0.42033367  0.81538462  0.84649850    -0.79200
C667        C  0.59756566  0.82521375  0.84625951     0.80800
N668        N  0.57969374  0.82132046  0.84472673    -0.77500
C669        C  0.56713970  0.83099051  0.85399127     0.83200
N670        N  0.57269123  0.84413403  0.86546012    -0.77500
C671        C  0.59032334  0.84849370  0.86675350     0.83300
N672        N  0.60265240  0.83920594  0.85698361    -0.79200
O673        O  0.28349354  0.71534966  0.75388415    -0.87800
C674        C  0.23646709  0.71186863  0.78153699     0.88200
Mg675      Mg  0.29009706  0.73815380  0.73827539     1.58100
O676        O  0.23770490  0.68720804  0.74101572    -0.87500
O677        O  0.27984361  0.68658497  0.74878321    -0.74900
C678        C  0.21701192  0.75924387  0.69102113     0.93300
O679        O  0.26147799  0.74748854  0.77333330    -0.74700
O680        O  0.23078443  0.76647662  0.69813289    -0.82200
Mg681      Mg  0.27458362  0.72054085  0.78093527     1.58000
C682        C  0.19373698  0.68869825  0.70680484     0.93200
O683        O  0.28799706  0.69526032  0.79231003    -0.80400
H684        H  0.24810325  0.66773026  0.72553610    -0.05800
C685        C  0.21275493  0.73589323  0.73840681     0.88100
O686        O  0.27961247  0.72455794  0.71248138    -0.75000
O687        O  0.25048144  0.70614996  0.77459498    -0.87700
O688        O  0.19810587  0.68409942  0.72276741    -0.80500
C689        C  0.21325543  0.66503195  0.77607958     0.93300
C690        C  0.28395259  0.67879708  0.79505151     0.93200
Mg691      Mg  0.22631712  0.71700448  0.70479405     1.58000
O692        O  0.21265051  0.74289942  0.69418108    -0.80500
O693        O  0.23946694  0.68973277  0.71168617    -0.74700
O694        O  0.22977595  0.66832660  0.77893039    -0.80500
O695        O  0.29986044  0.73623383  0.78752867    -0.82200
O696        O  0.27255421  0.76824594  0.70626807    -0.80600
C697        C  0.24187964  0.68089956  0.72617112     0.87600
O698        O  0.25082862  0.73078104  0.71055383    -0.87700
O699        O  0.21794787  0.72131204  0.73223354    -0.87800
O700        O  0.22200232  0.75019779  0.73664684    -0.74900
Mg701      Mg  0.25386226  0.67941293  0.76359304     1.58000
O702        O  0.20438056  0.67258104  0.76353123    -0.82200
H703        H  0.30186351  0.70064332  0.74079127    -0.06000
O704        O  0.26401835  0.74940341  0.74404589    -0.87500
H705        H  0.25342144  0.76927483  0.75885145    -0.05800
H706        H  0.26392351  0.71707010  0.69139761    -0.06000
C707        C  0.25958504  0.75606235  0.75864733     0.87600
C708        C  0.28911137  0.70090138  0.74782004     0.88200
C709        C  0.26468207  0.72408668  0.70415665     0.88200
H710        H  0.20028612  0.73638086  0.74591829    -0.05900
O711        O  0.22139098  0.71069895  0.77356549    -0.75000
Mg712      Mg  0.24802740  0.75747615  0.72149231     1.58000
H713        H  0.23713754  0.71848382  0.79451397    -0.06000
C714        C  0.30768982  0.74878745  0.77881641     0.93200
O715        O  0.29748332  0.76170598  0.72164239    -0.82200
C716        C  0.28923409  0.77037855  0.70947655     0.93300
O717        O  0.27100833  0.67106087  0.78700031    -0.82200
Mg718      Mg  0.21141974  0.69752182  0.74731956     1.58200
O719        O  0.30396756  0.75208879  0.76235339    -0.80500
O720        O  0.20082943  0.70199762  0.69865986    -0.82200
O721        O  0.78228458  0.71918794  0.73443202    -0.87800
C722        C  0.73442224  0.72380009  0.70839096     0.88200
Mg723      Mg  0.78876576  0.69598788  0.75002651     1.58100
O724        O  0.73769936  0.75011323  0.74783379    -0.87500
O725        O  0.77970702  0.74824669  0.73874085    -0.74900
C726        C  0.71717437  0.68070431  0.80195552     0.93300
O727        O  0.75813310  0.68760367  0.71658284    -0.74700
O728        O  0.73013862  0.67243284  0.79434397    -0.82200
Mg729      Mg  0.77190362  0.71386825  0.70773093     1.58000
C730        C  0.69470167  0.75100685  0.78379422     0.93200
O731        O  0.78561007  0.73815171  0.69471977    -0.80400
H732        H  0.74975467  0.76957036  0.76204776    -0.05800
C733        C  0.71154368  0.70210809  0.75372149     0.88100
O734        O  0.78029805  0.71014381  0.77635171    -0.75000
O735        O  0.74875035  0.72932480  0.71473479    -0.87700
O736        O  0.69791518  0.75407745  0.76715052    -0.80500
C737        C  0.71284409  0.77135630  0.71229156     0.93300
C738        C  0.78205817  0.75461683  0.69147207     0.93200
Mg739      Mg  0.72760523  0.72194226  0.78570767     1.58000
O740        O  0.71349716  0.69712641  0.79830539    -0.80500
O741        O  0.74146477  0.74820167  0.77703026    -0.74700
O742        O  0.72945950  0.76805948  0.71001511    -0.80500
O743        O  0.79632904  0.69750906  0.70025581    -0.82200
O744        O  0.77182225  0.66838243  0.78387273    -0.80600
C745        C  0.74302936  0.75663231  0.76220310     0.87600
O746        O  0.75119313  0.70655127  0.77918025    -0.87700
O747        O  0.71761387  0.71674924  0.75887278    -0.87800
O748        O  0.72030698  0.68751566  0.75561090    -0.74900
Mg749      Mg  0.75355245  0.75630827  0.72456322     1.58000
O750        O  0.70365032  0.76395732  0.72480665    -0.82200
H751        H  0.80134318  0.73363749  0.74677265    -0.06000
O752        O  0.76193855  0.68598315  0.74573978    -0.87500
H753        H  0.74974648  0.66642343  0.73179072    -0.05800
H754        H  0.76596173  0.71911605  0.79787767    -0.06000
C755        C  0.75650715  0.67933923  0.73148620     0.87600
C756        C  0.78846596  0.73361488  0.74000219     0.88200
C757        C  0.76571945  0.71207399  0.78511286     0.88200
H758        H  0.69867207  0.70179243  0.74695433    -0.05900
O759        O  0.71967235  0.72546274  0.71684484    -0.75000
Mg760      Mg  0.74673763  0.67958643  0.76955904     1.58000
H761        H  0.73455240  0.71680992  0.69559639    -0.06000
C762        C  0.80473821  0.68544211  0.70901476     0.93200
O763        O  0.79578941  0.67148992  0.76619258    -0.82200
C764        C  0.78794990  0.66432318  0.77962095     0.93300
O765        O  0.77002568  0.76321662  0.70007970    -0.82200
Mg766      Mg  0.71086756  0.73985066  0.74272170     1.58200
O767        O  0.80142718  0.68197968  0.72551695    -0.80500
O768        O  0.70301711  0.73876600  0.79252110    -0.82200
O769        O  0.74869965  0.75008455  0.25665715    -0.87800
C770        C  0.75301032  0.70177184  0.28297607     0.88200
Mg771      Mg  0.72519795  0.75757464  0.24176045     1.58100
O772        O  0.77847941  0.70560005  0.24322901    -0.87500
O773        O  0.77774535  0.74698369  0.25289180    -0.74900
C774        C  0.70784179  0.68667130  0.19146493     0.93300
O775        O  0.71724641  0.72668233  0.27568214    -0.74700
O776        O  0.69972713  0.69963885  0.19915134    -0.82200
Mg777      Mg  0.74397274  0.73996806  0.28356321     1.58000
C778        C  0.77822211  0.66423603  0.20640660     0.93200
O779        O  0.76897559  0.75382157  0.29504881    -0.80400
H780        H  0.79752315  0.71808116  0.22880145    -0.05800
C781        C  0.73021871  0.68050530  0.23856031     0.88100
O782        O  0.73840161  0.74936696  0.21499773    -0.75000
O783        O  0.75855507  0.71614629  0.27659455    -0.87700
O784        O  0.78193764  0.66771502  0.22278414    -0.80500
C785        C  0.80057130  0.67890064  0.27698172     0.93300
C786        C  0.78511130  0.74947238  0.29874531     0.93200
Mg787      Mg  0.74930279  0.69671419  0.20600397     1.58000
O788        O  0.72429503  0.68300421  0.19451248    -0.80500
O789        O  0.77580334  0.71027770  0.21420185    -0.74700
O790        O  0.79644526  0.69507220  0.28109393    -0.80500
O791        O  0.72820621  0.76463392  0.29135758    -0.82200
O792        O  0.69581892  0.74111147  0.20911622    -0.80600
C793        C  0.78460179  0.71137981  0.22882907     0.87600
O794        O  0.73430632  0.72026194  0.21303027    -0.87700
O795        O  0.74471727  0.68638325  0.23284622    -0.87800
O796        O  0.71572495  0.68947803  0.23716502    -0.74900
Mg797      Mg  0.78539483  0.72029723  0.26678419     1.58000
O798        O  0.79309918  0.67090098  0.26378824    -0.82200
H799        H  0.76365859  0.76881032  0.24427445    -0.06000
O800        O  0.71471566  0.73103905  0.24662929    -0.87500
H801        H  0.69536620  0.71917328  0.26116740    -0.05800
H802        H  0.74612239  0.73446998  0.19337138    -0.06000
C803        C  0.70843187  0.72558847  0.26107644     0.87600
C804        C  0.76328048  0.75594312  0.25115080     0.88200
C805        C  0.73969031  0.73459707  0.20646153     0.88200
H806        H  0.72996896  0.66762542  0.24541983    -0.05900
O807        O  0.75457464  0.68700368  0.27445104    -0.75000
Mg808      Mg  0.70756047  0.71600365  0.22331952     1.58000
H809        H  0.74627684  0.70184306  0.29591374    -0.06000
C810        C  0.71550220  0.77260897  0.28315290     0.93200
O811        O  0.70031464  0.76531126  0.22611349    -0.82200
C812        C  0.69230171  0.75745514  0.21317311     0.93300
O813        O  0.79297163  0.73618746  0.29136202    -0.82200
Mg814      Mg  0.76821999  0.67896505  0.24780177     1.58200
O815        O  0.71188817  0.76954588  0.26667694    -0.80500
O816        O  0.76548481  0.67207306  0.19806868    -0.82200
O817        O  0.74124327  0.22050776  0.78663382    -0.87800
C818        C  0.71442074  0.21434637  0.73910599     0.88200
Mg819      Mg  0.75562545  0.24443605  0.79329663     1.58100
O820        O  0.75593560  0.19159477  0.74136348    -0.87500
O821        O  0.74708961  0.19176254  0.78348881    -0.74900
C822        C  0.80414049  0.26516047  0.72154228     0.93300
O823        O  0.72070167  0.25083873  0.76367216    -0.74700
O824        O  0.79630501  0.27244129  0.73489983    -0.82200
Mg825      Mg  0.71406383  0.22386287  0.77751573     1.58000
C826        C  0.79157349  0.19441077  0.69757951     0.93200
O827        O  0.70393263  0.19795195  0.79161798    -0.80400
H828        H  0.77202659  0.17311415  0.75257958    -0.05800
C829        C  0.75708420  0.24042967  0.71581764     0.88100
O830        O  0.78217856  0.23175862  0.78373984    -0.75000
O831        O  0.72114370  0.20913426  0.75344212    -0.87700
O832        O  0.77557543  0.18945586  0.70144802    -0.80500
C833        C  0.72334112  0.16691452  0.71604106     0.93300
C834        C  0.70168381  0.18133508  0.78770551     0.93200
Mg835      Mg  0.79097363  0.22298174  0.73051171     1.58000
O836        O  0.80069857  0.24902661  0.71670712    -0.80500
O837        O  0.78495396  0.19565666  0.74392820    -0.74700
O838        O  0.71934777  0.17006842  0.73248927    -0.80500
O839        O  0.70652829  0.24006413  0.80272215    -0.82200
O840        O  0.78684249  0.27462235  0.77578510    -0.80600
C841        C  0.77091108  0.18613133  0.74608118     0.87600
O842        O  0.78377499  0.23686881  0.75467814    -0.87700
O843        O  0.76367936  0.22613329  0.72133983    -0.87800
O844        O  0.75820271  0.25496425  0.72484425    -0.74900
Mg845      Mg  0.73323021  0.18296133  0.75727474     1.58000
O846        O  0.73546483  0.17570682  0.70769867    -0.82200
H847        H  0.75474223  0.20646443  0.80524658    -0.06000
O848        O  0.74971628  0.25485354  0.76680686    -0.87500
H849        H  0.73390026  0.27321949  0.75502822    -0.05800
H850        H  0.80357962  0.22469742  0.76825561    -0.06000
C851        C  0.73483110  0.26029729  0.76174712     0.87600
C852        C  0.74775277  0.20632232  0.79246357     0.88200
C853        C  0.79050036  0.23105825  0.76877920     0.88200
H854        H  0.74979566  0.24046680  0.70320330    -0.05900
O855        O  0.72289882  0.21335093  0.72423176    -0.75000
Mg856      Mg  0.77240291  0.26325277  0.75116717     1.58000
H857        H  0.70115252  0.22032142  0.73929553    -0.06000
C858        C  0.71448468  0.25340734  0.81008259     0.93200
O859        O  0.77152521  0.26914796  0.80100082    -0.82200
C860        C  0.78398026  0.27725456  0.79248652     0.93300
O861        O  0.70968637  0.17385046  0.77448412    -0.82200
Mg862      Mg  0.75000176  0.20153938  0.71473071     1.58200
O863        O  0.73064049  0.25751805  0.80601582    -0.80500
O864        O  0.79899382  0.20777212  0.70532983    -0.82200
C865        C  0.16011507  0.37865460  0.85501479     0.80800
N866        N  0.14534498  0.37358023  0.86466263    -0.77500
C867        C  0.13573436  0.38601164  0.87406222     0.83200
N868        N  0.14095803  0.40350121  0.87358504    -0.77500
C869        C  0.15562560  0.40881428  0.86408327     0.83300
N870        N  0.16525019  0.39630068  0.85477610    -0.79200
C871        C  0.15638540  0.57384224  0.85981099     0.80800
N872        N  0.15974939  0.55595481  0.85763859    -0.77500
C873        C  0.15187291  0.54362022  0.86860098     0.83200
N874        N  0.14035396  0.54910854  0.88168673    -0.77500
C875        C  0.13690929  0.56692619  0.88400115     0.83300
N876        N  0.14487390  0.57927175  0.87303176    -0.79200
O877        O  0.25626019  0.25231053  0.76394134    -0.87800
C878        C  0.25992272  0.20445550  0.79071477     0.88200
Mg879      Mg  0.23240848  0.26019039  0.74994339     1.58100
O880        O  0.28374117  0.20587195  0.74970317    -0.87500
O881        O  0.28480941  0.24772182  0.75822217    -0.74900
C882        C  0.20988228  0.18924153  0.70008726     0.93300
O883        O  0.22491118  0.23029346  0.78445066    -0.74700
O884        O  0.20235804  0.20242544  0.70812389    -0.82200
Mg885      Mg  0.25236229  0.24290137  0.79122626     1.58000
C886        C  0.27926733  0.16326827  0.71372362     0.93200
O887        O  0.27839312  0.25596643  0.80182181    -0.80400
H888        H  0.30241717  0.21714648  0.73386966    -0.05800
C889        C  0.23390657  0.18255638  0.74723168     0.88100
O890        O  0.24407089  0.25084474  0.72278021    -0.75000
O891        O  0.26589905  0.21847208  0.78394335    -0.87700
O892        O  0.28411197  0.16651665  0.72991092    -0.80500
C893        C  0.30597151  0.17933446  0.78364718     0.93300
C894        C  0.29461183  0.25106899  0.80442838     0.93200
Mg895      Mg  0.25211833  0.19754109  0.71390949     1.58000
O896        O  0.22613341  0.18478558  0.70324201    -0.80500
O897        O  0.27956748  0.20998925  0.72074924    -0.74700
O898        O  0.30354427  0.19599200  0.78721398    -0.80500
O899        O  0.23768479  0.26835321  0.79934200    -0.82200
O900        O  0.20011496  0.24426673  0.71909914    -0.80600
C901        C  0.28924203  0.21103102  0.73482065     0.87600
O902        O  0.23837883  0.22195905  0.72094751    -0.87700
O903        O  0.24841543  0.18794924  0.74111497    -0.87800
O904        O  0.21966105  0.19194218  0.74603256    -0.74900
Mg905      Mg  0.29236382  0.22124660  0.77251204     1.58000
O906        O  0.29737428  0.17133255  0.77111180    -0.82200
H907        H  0.27115840  0.26998156  0.75004096    -0.06000
O908        O  0.22093524  0.23392824  0.75543434    -0.87500
H909        H  0.20222629  0.22270261  0.77125967    -0.05800
H910        H  0.25015386  0.23560478  0.70086899    -0.06000
C911        C  0.21536301  0.22890434  0.77032416     0.87600
C912        C  0.27069028  0.25733411  0.75731176     0.88200
C913        C  0.24423476  0.23603241  0.71419403     0.88200
H914        H  0.23342382  0.16973274  0.75418215    -0.05900
O915        O  0.26029406  0.18954009  0.78230872    -0.75000
Mg916      Mg  0.21190207  0.21873882  0.73241262     1.58000
H917        H  0.25375723  0.20501097  0.80392125    -0.06000
C918        C  0.22521005  0.27705266  0.79150037     0.93200
O919        O  0.20748603  0.26859459  0.73528121    -0.82200
C920        C  0.19803053  0.26079092  0.72337832     0.93300
O921        O  0.30161751  0.23785945  0.79606602    -0.82200
Mg922      Mg  0.27228981  0.17985499  0.75542318     1.58200
O923        O  0.22060875  0.27372327  0.77528405    -0.80500
O924        O  0.26664731  0.17191831  0.70603800    -0.82200
O925        O  0.23797324  0.70401188  0.21129851    -0.87800
C926        C  0.23279276  0.67588373  0.25826006     0.88200
Mg927      Mg  0.26240264  0.71850163  0.20487845     1.58100
O928        O  0.20886895  0.71672088  0.25683638    -0.87500
O929        O  0.20908046  0.70880378  0.21470866    -0.74900
C930        C  0.28190149  0.76569070  0.27859179     0.93300
O931        O  0.26824323  0.68292912  0.23384991    -0.74700
O932        O  0.28973466  0.75775297  0.26553406    -0.82200
Mg933      Mg  0.24127550  0.67641002  0.22008045     1.58000
C934        C  0.21036062  0.75113636  0.30099004     0.93200
O935        O  0.21536357  0.66584191  0.20594633    -0.80400
H936        H  0.19054448  0.73275961  0.24532778    -0.05800
C937        C  0.25741235  0.71884057  0.28247368     0.88100
O938        O  0.25014625  0.74523857  0.21476956    -0.75000
O939        O  0.22696883  0.68279572  0.24425082    -0.87700
O940        O  0.20634574  0.73506248  0.29646922    -0.80500
C941        C  0.18663267  0.68194926  0.28232689     0.93300
C942        C  0.19912228  0.66235424  0.21044352     0.93200
Mg943      Mg  0.23957517  0.75279406  0.26811781     1.58000
O944        O  0.26524226  0.76332298  0.28208194    -0.80500
O945        O  0.21276225  0.74592162  0.25425110    -0.74700
O946        O  0.18901622  0.67934145  0.26550495    -0.80500
O947        O  0.25716804  0.66923677  0.19507107    -0.82200
O948        O  0.29395252  0.74869953  0.22349301    -0.80600
C949        C  0.20341035  0.73173759  0.25203979     0.87600
O950        O  0.25450182  0.74647309  0.24397590    -0.87700
O951        O  0.24323826  0.72529470  0.27666389    -0.87800
O952        O  0.27199851  0.71993903  0.27364212    -0.74900
Mg953      Mg  0.20061398  0.69409020  0.24079955     1.58000
O954        O  0.19488774  0.69430767  0.29083096    -0.82200
H955        H  0.22353442  0.71794802  0.19330068    -0.06000
O956        O  0.27239756  0.71208143  0.23141565    -0.87500
H957        H  0.29062667  0.69582164  0.24275842    -0.05800
H958        H  0.24298140  0.76663300  0.23027242    -0.06000
C959        C  0.27774136  0.69700043  0.23610893     0.87600
C960        C  0.22362718  0.71042142  0.20580284     0.88200
C961        C  0.24914998  0.75343042  0.22979452     0.88200
H962        H  0.25725107  0.71152912  0.29510216    -0.05900
O963        O  0.23217522  0.68407118  0.27328933    -0.75000
Mg964      Mg  0.28078645  0.73446152  0.24779819     1.58000
H965        H  0.23913693  0.66277454  0.25758313    -0.06000
C966        C  0.27052297  0.67709418  0.18772099     0.93200
O967        O  0.28811358  0.73405764  0.19790382    -0.82200
C968        C  0.29710248  0.74563273  0.20685799     0.93300
O969        O  0.19174957  0.67017978  0.22381898    -0.82200
Mg970      Mg  0.21945326  0.71048511  0.28319213     1.58200
O971        O  0.27488521  0.69327940  0.19161522    -0.80500
O972        O  0.22339869  0.75957735  0.29361136    -0.82200
O973        O  0.73299594  0.18660220  0.24942395    -0.87800
C974        C  0.70950040  0.23581164  0.24803360     0.88200
Mg975      Mg  0.74867692  0.17827995  0.27200870     1.58100
O976        O  0.74860376  0.23164815  0.22176595    -0.87500
O977        O  0.73696830  0.19042390  0.22046248    -0.74900
C978        C  0.80297591  0.24673654  0.29207715     0.93300
O979        O  0.71626877  0.20926941  0.28220928    -0.74700
O980        O  0.79450733  0.23385650  0.29963968    -0.82200
Mg981      Mg  0.70662693  0.19723327  0.25524917     1.58000
C982        C  0.78707871  0.27268235  0.22198718     0.93200
O983        O  0.69336651  0.18516154  0.22932722    -0.80400
H984        H  0.76230184  0.21994946  0.20170422    -0.05800
C985        C  0.75567198  0.25563724  0.27060124     0.88100
O986        O  0.77500766  0.18659522  0.25795540    -0.75000
O987        O  0.71434279  0.22134118  0.24125634    -0.87700
O988        O  0.77056294  0.26957229  0.21852310    -0.80500
C989        C  0.71545766  0.26026059  0.20152257     0.93300
C990        C  0.69055464  0.18979533  0.21293067     0.93200
Mg991      Mg  0.78710726  0.23926411  0.25012129     1.58000
O992        O  0.80008729  0.25126477  0.27572195    -0.80500
O993        O  0.77767136  0.22713735  0.22315266    -0.74700
O994        O  0.71107631  0.24389910  0.20435082    -0.80500
O995        O  0.69863209  0.17206987  0.27110446    -0.82200
O996        O  0.78266345  0.19256326  0.30113352    -0.80600
C997        C  0.76273210  0.22613806  0.21489905     0.87600
O998        O  0.77948553  0.21518589  0.26411755    -0.87700
O999        O  0.76083787  0.24997106  0.25580528    -0.87800
O1000       O  0.75672867  0.24605128  0.28475561    -0.74900
Mg1001     Mg  0.72428163  0.21788085  0.21417439     1.58000
O1002       O  0.72894916  0.26749482  0.20914495    -0.82200
H1003       H  0.74413882  0.16764076  0.23383680    -0.06000
O1004       O  0.74534199  0.20469448  0.28357383    -0.87500
H1005       H  0.73164923  0.21624513  0.30371934    -0.05800
H1006       H  0.79722901  0.20048697  0.25015691    -0.06000
C1007       C  0.73120920  0.21014924  0.29048050     0.87600
C1008       C  0.73805698  0.18086890  0.23462443     0.88200
C1009       C  0.78456638  0.20080844  0.25734483     0.88200
H1010       H  0.74953441  0.26883867  0.27139346    -0.05900
O1011       O  0.71910225  0.24999443  0.24708841    -0.75000
Mg1012     Mg  0.76947260  0.21862503  0.29120501     1.58000
H1013       H  0.69696717  0.23627737  0.25543670    -0.06000
C1014       C  0.70725175  0.16387117  0.28350995     0.93200
O1015       O  0.76544070  0.16867390  0.29533052    -0.82200
C1016       C  0.77875913  0.17595588  0.30317540     0.93300
O1017       O  0.69906698  0.20280827  0.20563597    -0.82200
Mg1018     Mg  0.74545983  0.25819949  0.23292950     1.58200
O1019       O  0.72391000  0.16671586  0.28635022    -0.80500
O1020       O  0.79516190  0.26458128  0.23478351    -0.82200
C1021       C  0.15333901  0.10714124  0.40795724     0.80800
N1022       N  0.13871816  0.09695590  0.40385562    -0.77500
C1023       C  0.12969233  0.08796328  0.41692386     0.83200
N1024       N  0.13480486  0.08964198  0.43434568    -0.77500
C1025       C  0.14862249  0.10068811  0.43882592     0.83300
N1026       N  0.15800344  0.10939310  0.42561301    -0.79200
C1027       C  0.14833709  0.11496759  0.60369319     0.80800
N1028       N  0.15025019  0.11802312  0.58569533    -0.77500
C1029       C  0.14153047  0.10746416  0.57352065     0.83200
N1030       N  0.13095869  0.09375563  0.57950590    -0.77500
C1031       C  0.12878632  0.09080726  0.59742025     0.83300
N1032       N  0.13736215  0.10149697  0.60947613    -0.79200
O1033       O  0.28782247  0.21454181  0.24474478    -0.87800
C1034       C  0.23899881  0.21964532  0.22016066     0.88200
Mg1035     Mg  0.29577996  0.19020227  0.25846252     1.58100
O1036       O  0.24342875  0.24256869  0.26147698    -0.87500
O1037       O  0.28479917  0.24341548  0.25001005    -0.74900
C1038       C  0.22583147  0.16750065  0.30942925     0.93300
O1039       O  0.26457669  0.18386140  0.22501319    -0.74700
O1040       O  0.23881094  0.16024383  0.30091245    -0.82200
Mg1041     Mg  0.27718425  0.21125252  0.21791235     1.58000
C1042       C  0.20130247  0.23837091  0.29884477     0.93200
O1043       O  0.28989839  0.23733614  0.20669696    -0.80400
H1044       H  0.25568336  0.26070841  0.27718958    -0.05800
C1045       C  0.21896246  0.19332374  0.26386638     0.88100
O1046       O  0.28761538  0.20205698  0.28589751    -0.75000
O1047       O  0.25342342  0.22526442  0.22623419    -0.87700
O1048       O  0.20521181  0.24394033  0.28305022    -0.80500
C1049       C  0.21530011  0.26584663  0.22983147     0.93300
C1050       C  0.28526449  0.25366313  0.20383962     0.93200
Mg1051     Mg  0.23493793  0.21051187  0.29732848     1.58000
O1052       O  0.22205530  0.18419847  0.30769654    -0.80500
O1053       O  0.24780433  0.23799003  0.29035489    -0.74700
O1054       O  0.23176083  0.26345130  0.22565157    -0.80500
O1055       O  0.30201998  0.19613901  0.20894433    -0.82200
O1056       O  0.28029120  0.15805302  0.28986579    -0.80600
C1057       C  0.24909583  0.24773299  0.27627793     0.87600
O1058       O  0.25883593  0.19655405  0.28915330    -0.87700
O1059       O  0.22481664  0.20750664  0.27034900    -0.87800
O1060       O  0.22807259  0.17884223  0.26416823    -0.74900
Mg1061     Mg  0.25756896  0.25159669  0.23777853     1.58000
O1062       O  0.20774855  0.25706274  0.24247770    -0.82200
H1063       H  0.30698512  0.22901717  0.25691924    -0.06000
O1064       O  0.26935106  0.17953285  0.25382390    -0.87500
H1065       H  0.25742864  0.16101249  0.23831452    -0.05800
H1066       H  0.27344011  0.20841017  0.30842580    -0.06000
C1067       C  0.26373345  0.17413592  0.23910052     0.87600
C1068       C  0.29385921  0.22890048  0.25065235     0.88200
C1069       C  0.27322443  0.20237235  0.29515560     0.88200
H1070       H  0.20599507  0.19338761  0.25727444    -0.05900
O1071       O  0.22462628  0.22006096  0.22942606    -0.75000
Mg1072     Mg  0.25485940  0.17035181  0.27700837     1.58000
H1073       H  0.23872376  0.21372941  0.20683585    -0.06000
C1074       C  0.31021625  0.18291821  0.21617598     0.93200
O1075       O  0.30442028  0.16460966  0.27319677    -0.82200
C1076       C  0.29671818  0.15553484  0.28559761     0.93300
O1077       O  0.27258745  0.26111578  0.21268124    -0.82200
Mg1078     Mg  0.21680511  0.23182785  0.25701050     1.58200
O1079       O  0.30727606  0.17812971  0.23242706    -0.80500
O1080       O  0.20956950  0.22521265  0.30610581    -0.82200
C1081       C  0.17793484  0.11131330  0.36280075    -0.04900
C1082       C  0.18418109  0.12922377  0.36350089     0.09200
C1083       C  0.18092873  0.13975910  0.37898309    -0.02300
C1084       C  0.17147107  0.13245264  0.39379581    -0.00600
C1085       C  0.16457638  0.11464750  0.39298855    -0.04200
C1086       C  0.16807142  0.10405333  0.37737979     0.02800
C1087       C  0.19456496  0.13714036  0.34812764     0.09700
C1088       C  0.18729060  0.15827741  0.37955979     0.35600
C1089       C  0.16207897  0.08542332  0.37641363     0.39000
C1090       C  0.18585269  0.14834679  0.33549347    -0.04500
C1091       C  0.19599207  0.15800900  0.32260688     0.02600
C1092       C  0.21497687  0.15635165  0.32215431    -0.04100
C1093       C  0.22357507  0.14445639  0.33440273    -0.00400
C1094       C  0.21335355  0.13478664  0.34721636    -0.02900
C1095       C  0.16641181  0.15001972  0.33592672     0.36300
C1096       C  0.24303565  0.14297002  0.33470865     0.39900
C1097       C  0.18680855  0.16967699  0.30986160     0.39100
C1098       C  0.22217941  0.12265242  0.35977723     0.36000
C1099       C  0.18176951  0.10033268  0.34706564     0.36700
C1100       C  0.16889567  0.14353277  0.40967768     0.39900
N1101       N  0.17948851  0.17906252  0.29976775    -0.38100
N1102       N  0.15089510  0.15126472  0.33626561    -0.39700
N1103       N  0.25855320  0.14177929  0.33509431    -0.37500
N1104       N  0.22915919  0.11286914  0.36973256    -0.39900
N1105       N  0.19229936  0.17306004  0.37989759    -0.39600
N1106       N  0.16740246  0.15272911  0.42219014    -0.37300
N1107       N  0.15722404  0.07060085  0.37563956    -0.38300
N1108       N  0.18489428  0.09151942  0.33456824    -0.40000
C1109       C  0.15633048  0.09316045  0.48876643    -0.04900
C1110       C  0.15028218  0.10973666  0.49592211     0.09200
C1111       C  0.14591173  0.12404913  0.48419071    -0.02300
C1112       C  0.14639890  0.12144178  0.46535428    -0.00600
C1113       C  0.15164613  0.10459845  0.45816402    -0.04200
C1114       C  0.15706009  0.09061022  0.46992734     0.02800
C1115       C  0.14770342  0.11169740  0.51583017     0.09700
C1116       C  0.14042583  0.14130137  0.49157859     0.35600
C1117       C  0.16315482  0.07349404  0.46266292     0.39000
C1118       C  0.16261447  0.11477152  0.52712316    -0.04500
C1119       C  0.16067391  0.11374798  0.54602874     0.02600
C1120       C  0.14352377  0.11059453  0.55376663    -0.04100
C1121       C  0.12827602  0.10954295  0.54236293    -0.00400
C1122       C  0.13043101  0.10960666  0.52346432    -0.02900
C1123       C  0.17994340  0.11902962  0.51918610     0.36300
C1124       C  0.11029579  0.10891713  0.55002706     0.39900
C1125       C  0.17651817  0.11507723  0.55734331     0.39100
C1126       C  0.11489522  0.10731431  0.51184634     0.36000
C1127       C  0.16131427  0.07857583  0.50084899     0.36700
C1128       C  0.14016249  0.13567355  0.45348987     0.39900
N1129       N  0.18917616  0.11609598  0.56636215    -0.38100
N1130       N  0.19368615  0.12267250  0.51279681    -0.39700
N1131       N  0.09596374  0.10860138  0.55614971    -0.37500
N1132       N  0.10249193  0.10552500  0.50259307    -0.39900
N1133       N  0.13606893  0.15506249  0.49751160    -0.39600
N1134       N  0.13493067  0.14705460  0.44417875    -0.37300
N1135       N  0.16813519  0.05982640  0.45700542    -0.38300
N1136       N  0.16531408  0.06701008  0.51055132    -0.40000
C1137       C  0.19985456  0.16590372  0.65544921    -0.04900
C1138       C  0.18216515  0.15970707  0.65823750     0.09200
C1139       C  0.17324791  0.16353032  0.67460551    -0.02300
C1140       C  0.18218726  0.17315943  0.68838873    -0.00600
C1141       C  0.20004185  0.17924788  0.68572118    -0.04200
C1142       C  0.20872049  0.17575604  0.66902377     0.02800
C1143       C  0.17333948  0.14831591  0.64417957     0.09700
C1144       C  0.15492646  0.15732201  0.67725922     0.35600
C1145       C  0.22669493  0.18261391  0.66553654     0.39000
C1146       C  0.17464950  0.12937184  0.64524106    -0.04500
C1147       C  0.16702695  0.11850232  0.63167094     0.02600
C1148       C  0.15766154  0.12652528  0.61711091    -0.04100
C1149       C  0.15660410  0.14555983  0.61594120    -0.00400
C1150       C  0.16444927  0.15640154  0.62944859    -0.02900
C1151       C  0.18390517  0.12110060  0.66036237     0.36300
C1152       C  0.14702256  0.15404463  0.60114976     0.39900
C1153       C  0.16944253  0.09907755  0.63239394     0.39100
C1154       C  0.16324480  0.17590256  0.62833102     0.36000
C1155       C  0.20899703  0.16191928  0.63859779     0.36700
C1156       C  0.17327815  0.17602169  0.70555934     0.39900
N1157       N  0.17146829  0.08360141  0.63294632    -0.38100
N1158       N  0.19123032  0.11457653  0.67249404    -0.39700
N1159       N  0.13941541  0.16078645  0.58931237    -0.37500
N1160       N  0.16227759  0.19146366  0.62744371    -0.39900
N1161       N  0.14029774  0.15234950  0.67926266    -0.39600
N1162       N  0.16615035  0.17818183  0.71927915    -0.37300
N1163       N  0.24102699  0.18806049  0.66274533    -0.38300
N1164       N  0.21624115  0.15869402  0.62515287    -0.40000
C1165       C  0.17179820  0.33920403  0.82436772    -0.04900
C1166       C  0.19023656  0.33679497  0.82814877     0.09200
C1167       C  0.19906317  0.34876467  0.83998389    -0.02300
C1168       C  0.18935384  0.36279488  0.84842671    -0.00600
C1169       C  0.17071448  0.36482530  0.84514692    -0.04200
C1170       C  0.16205798  0.35315234  0.83283094     0.02800
C1171       C  0.20029248  0.32171315  0.81932321     0.09700
C1172       C  0.21812646  0.34657057  0.84349573     0.35600
C1173       C  0.14322776  0.35581454  0.82842563     0.39000
C1174       C  0.20760470  0.32413220  0.80194361    -0.04500
C1175       C  0.21568805  0.30951277  0.79288091     0.02600
C1176       C  0.21641829  0.29228166  0.80112351    -0.04100
C1177       C  0.20949227  0.29001090  0.81875905    -0.00400
C1178       C  0.20161841  0.30475151  0.82788905    -0.02900
C1179       C  0.20697965  0.34179529  0.79351199     0.36300
C1180       C  0.20991930  0.27239856  0.82730086     0.39900
C1181       C  0.22386092  0.31242155  0.77532207     0.39100
C1182       C  0.19497007  0.30256091  0.84616404     0.36000
C1183       C  0.16289511  0.32731294  0.81165216     0.36700
C1184       C  0.19846779  0.37480046  0.86087308     0.39900
N1185       N  0.23045563  0.31472812  0.76135566    -0.38100
N1186       N  0.20653610  0.35592422  0.78686499    -0.39700
N1187       N  0.21019927  0.25833495  0.83409937    -0.37500
N1188       N  0.18982131  0.30090085  0.86081375    -0.39900
N1189       N  0.23334267  0.34484820  0.84630467    -0.39600
N1190       N  0.20571946  0.38443316  0.87076514    -0.37300
N1191       N  0.12822650  0.35798156  0.82486359    -0.38300
N1192       N  0.15587744  0.31783340  0.80144992    -0.40000
C1193       C  0.15832694  0.45753849  0.87911643    -0.04900
C1194       C  0.16144387  0.46651839  0.86264498     0.09200
C1195       C  0.16507219  0.45642911  0.84691069    -0.02300
C1196       C  0.16454313  0.43736231  0.84745195    -0.00600
C1197       C  0.16032175  0.42836045  0.86379440    -0.04200
C1198       C  0.15831350  0.43858931  0.87980306     0.02800
C1199       C  0.16005782  0.48662611  0.86202803     0.09700
C1200       C  0.16863622  0.46571442  0.83004319     0.35600
C1201       C  0.15641480  0.42964843  0.89714090     0.39000
C1202       C  0.17363724  0.49737794  0.86988927    -0.04500
C1203       C  0.17115891  0.51614817  0.87162288     0.02600
C1204       C  0.15502702  0.52419480  0.86567346    -0.04100
C1205       C  0.14156948  0.51352684  0.85756214    -0.00400
C1206       C  0.14410535  0.49478358  0.85567245    -0.02900
C1207       C  0.18968873  0.48894610  0.87715280     0.36300
C1208       C  0.12492562  0.52179738  0.85155237     0.39900
C1209       C  0.18476484  0.52699262  0.88049307     0.39100
C1210       C  0.12993288  0.48373931  0.84800364     0.36000
C1211       C  0.15426758  0.46786701  0.89525673     0.36700
C1212       C  0.16771866  0.42718951  0.83105032     0.39900
N1213       N  0.19562459  0.53550215  0.88773807    -0.38100
N1214       N  0.20235367  0.48218175  0.88320205    -0.39700
N1215       N  0.11162063  0.52837956  0.84682856    -0.37500
N1216       N  0.11863170  0.47490395  0.84191444    -0.39900
N1217       N  0.17136732  0.47310972  0.81655437    -0.39600
N1218       N  0.17041088  0.41911386  0.81796301    -0.37300
N1219       N  0.15499130  0.42255258  0.91098515    -0.38300
N1220       N  0.15095015  0.47619648  0.90803279    -0.40000
C1221       C  0.19307702  0.62103651  0.79247223    -0.04900
C1222       C  0.18953129  0.62524736  0.81070567     0.09200
C1223       C  0.19392718  0.64247032  0.81750807    -0.02300
C1224       C  0.20090416  0.65577150  0.80591211    -0.00600
C1225       C  0.20439876  0.65160122  0.78770599    -0.04200
C1226       C  0.20083721  0.63411992  0.78105902     0.02800
C1227       C  0.18089709  0.61171344  0.82284367     0.09700
C1228       C  0.19166094  0.64630227  0.83656315     0.35600
C1229       C  0.20580584  0.62942498  0.76271034     0.39000
C1230       C  0.19107787  0.59739009  0.82999827    -0.04500
C1231       C  0.18319809  0.58529460  0.84236374     0.02600
C1232       C  0.16487016  0.58718495  0.84738326    -0.04100
C1233       C  0.15468160  0.60159912  0.84004380    -0.00400
C1234       C  0.16272439  0.61382050  0.82788438    -0.02900
C1235       C  0.20979473  0.59524883  0.82478838     0.36300
C1236       C  0.13581583  0.60380297  0.84457819     0.39900
C1237       C  0.19437641  0.57144261  0.85043394     0.39100
C1238       C  0.15233150  0.62867832  0.82050183     0.36000
C1239       C  0.18896722  0.60319292  0.78557608     0.36700
C1240       C  0.20425562  0.67384902  0.81261040     0.39900
N1241       N  0.20361071  0.56056211  0.85671064    -0.38100
N1242       N  0.22467758  0.59343741  0.82055487    -0.39700
N1243       N  0.12077937  0.60578782  0.84812997    -0.37500
N1244       N  0.14418475  0.64062454  0.81463828    -0.39900
N1245       N  0.18997291  0.64921163  0.85180683    -0.39600
N1246       N  0.20680354  0.68832836  0.81785317    -0.37300
N1247       N  0.20994922  0.62565066  0.74813637    -0.38300
N1248       N  0.18577028  0.58891491  0.78013619    -0.40000
C1249       C  0.62116023  0.79454901  0.81170072    -0.04900
C1250       C  0.63822380  0.79230225  0.81964279     0.09200
C1251       C  0.64197132  0.80055638  0.83630015    -0.02300
C1252       C  0.62875871  0.81105738  0.84507977    -0.00600
C1253       C  0.61155594  0.81375010  0.83705154    -0.04200
C1254       C  0.60792775  0.80530824  0.82021027     0.02800
C1255       C  0.65254765  0.78159107  0.81025547     0.09700
C1256       C  0.65959043  0.79818458  0.84439895     0.35600
C1257       C  0.59082313  0.80797969  0.81117910     0.39000
C1258       C  0.66425850  0.79016511  0.79796986    -0.04500
C1259       C  0.67814985  0.78031856  0.78948400     0.02600
C1260       C  0.68033752  0.76164884  0.79308571    -0.04100
C1261       C  0.66827631  0.75303120  0.80521010    -0.00400
C1262       C  0.65468981  0.76305989  0.81397969    -0.02900
C1263       C  0.66207807  0.80926388  0.79425891     0.36300
C1264       C  0.66915812  0.73365739  0.80804648     0.39900
C1265       C  0.69034761  0.78960132  0.77730781     0.39100
C1266       C  0.64293809  0.75434698  0.82697863     0.36000
C1267       C  0.61730036  0.78579706  0.79463332     0.36700
C1268       C  0.63299896  0.81856289  0.86264990     0.39900
N1269       N  0.70002074  0.79701274  0.76754666    -0.38100
N1270       N  0.66027154  0.82450342  0.79136531    -0.39700
N1271       N  0.66976863  0.71819518  0.81020145    -0.37500
N1272       N  0.63365654  0.74741280  0.83744315    -0.39900
N1273       N  0.67366495  0.79625303  0.85077286    -0.39600
N1274       N  0.63652237  0.82454371  0.87662781    -0.37300
N1275       N  0.57718607  0.81001773  0.80393205    -0.38300
N1276       N  0.61424831  0.77876774  0.78104111    -0.40000
C1277       C  0.37738841  0.78036323  0.82407138    -0.04900
C1278       C  0.36308784  0.78994379  0.81598887     0.09200
C1279       C  0.36224125  0.80886717  0.81766998    -0.02300
C1280       C  0.37544464  0.81817907  0.82761726    -0.00600
C1281       C  0.38938469  0.80856739  0.83638072    -0.04200
C1282       C  0.39051822  0.78962090  0.83422828     0.02800
C1283       C  0.34861981  0.78001469  0.80608661     0.09700
C1284       C  0.34757384  0.81872102  0.80934275     0.35600
C1285       C  0.40485021  0.77950929  0.84286367     0.39000
C1286       C  0.33203838  0.77648167  0.81465279    -0.04500
C1287       C  0.31873783  0.76620385  0.80582430     0.02600
C1288       C  0.32169853  0.75980385  0.78806939    -0.04100
C1289       C  0.33818396  0.76386359  0.77930330    -0.00400
C1290       C  0.35153503  0.77399296  0.78828387    -0.02900
C1291       C  0.32853289  0.78379297  0.83246734     0.36300
C1292       C  0.34185410  0.75694731  0.76136171     0.39900
C1293       C  0.30192430  0.76242335  0.81505224     0.39100
C1294       C  0.36823518  0.77846606  0.77915570     0.36000
C1295       C  0.37832126  0.76088815  0.82229182     0.36700
C1296       C  0.37500869  0.83774838  0.82825398     0.39900
N1297       N  0.28858558  0.75929037  0.82249460    -0.38100
N1298       N  0.32564914  0.78987542  0.84655077    -0.39700
N1299       N  0.34486259  0.75139466  0.74708287    -0.37500
N1300       N  0.38152638  0.78214262  0.77187694    -0.39900
N1301       N  0.33577180  0.82653311  0.80282160    -0.39600
N1302       N  0.37476735  0.85335727  0.82870270    -0.37300
N1303       N  0.41632763  0.77144982  0.84967368    -0.38300
N1304       N  0.37909257  0.74535519  0.82088178    -0.40000
C1305       C  0.48118560  0.81447876  0.86781098    -0.04900
C1306       C  0.48964406  0.81888157  0.85130715     0.09200
C1307       C  0.47899190  0.82332546  0.83617665    -0.02300
C1308       C  0.46014286  0.82477812  0.83789963    -0.00600
C1309       C  0.45180708  0.82170291  0.85476485    -0.04200
C1310       C  0.46234286  0.81613066  0.86961081     0.02800
C1311       C  0.50963760  0.82159398  0.85062569     0.09700
C1312       C  0.48755447  0.82701173  0.81897034     0.35600
C1313       C  0.45379598  0.81221022  0.88678220     0.39000
C1314       C  0.52162462  0.80684446  0.84997940    -0.04500
C1315       C  0.54044624  0.80978064  0.85044604     0.02600
C1316       C  0.54741454  0.82757617  0.85167809    -0.04100
C1317       C  0.53524631  0.84232924  0.85143044    -0.00400
C1318       C  0.51654127  0.83931861  0.85102242    -0.02900
C1319       C  0.51453972  0.78863764  0.84900264     0.36300
C1320       C  0.54182794  0.86078232  0.85118494     0.39900
C1321       C  0.55248539  0.79438201  0.85016601     0.39100
C1322       C  0.50427246  0.85457654  0.85115947     0.36000
C1323       C  0.49191526  0.80850506  0.88301401     0.36700
C1324       C  0.44945090  0.83052559  0.82257352     0.39900
N1325       N  0.56204902  0.78206080  0.84982272    -0.38100
N1326       N  0.50889388  0.77410113  0.84827800    -0.39700
N1327       N  0.54697436  0.87552392  0.85103587    -0.37500
N1328       N  0.49444226  0.86668533  0.85113887    -0.39900
N1329       N  0.49439004  0.82998454  0.80524997    -0.39600
N1330       N  0.44086381  0.83516482  0.81040981    -0.37300
N1331       N  0.44695182  0.80914630  0.90048119    -0.38300
N1332       N  0.50044438  0.80348449  0.89506805    -0.40000
C1333       C  0.82611479  0.78441404  0.61804666    -0.04900
C1334       C  0.81831823  0.79232165  0.63347270     0.09200
C1335       C  0.81853403  0.81122473  0.63556743    -0.02300
C1336       C  0.82590219  0.82228423  0.62199590    -0.00600
C1337       C  0.83372091  0.81446518  0.60640275    -0.04200
C1338       C  0.83385836  0.79541720  0.60456889     0.02800
C1339       C  0.80908814  0.78101315  0.64735598     0.09700
C1340       C  0.81116134  0.81925090  0.65185365     0.35600
C1341       C  0.84239846  0.78699563  0.58910900     0.39000
C1342       C  0.81916296  0.77107632  0.66006654    -0.04500
C1343       C  0.81037680  0.76227026  0.67446360     0.02600
C1344       C  0.79149382  0.76368496  0.67637587    -0.04100
C1345       C  0.78137932  0.77307153  0.66319718    -0.00400
C1346       C  0.79015719  0.78152254  0.64865135    -0.02900
C1347       C  0.83859213  0.77016869  0.65847900     0.36300
C1348       C  0.76186302  0.77367112  0.66425664     0.39900
C1349       C  0.82085040  0.75219493  0.68756046     0.39100
C1350       C  0.77972317  0.79089776  0.63499996     0.36000
C1351       C  0.82634444  0.76492806  0.61616973     0.36700
C1352       C  0.82476345  0.84173871  0.62393388     0.39900
N1353       N  0.82917173  0.74407954  0.69796806    -0.38100
N1354       N  0.85408334  0.76933622  0.65713255    -0.39700
N1355       N  0.74631744  0.77417943  0.66509336    -0.37500
N1356       N  0.77142819  0.79838961  0.62411868    -0.39900
N1357       N  0.80525445  0.82545518  0.66490245    -0.39600
N1358       N  0.82374328  0.85723132  0.62560956    -0.37300
N1359       N  0.84917828  0.78027222  0.57676155    -0.38300
N1360       N  0.82670815  0.74937861  0.61477606    -0.40000
C1361       C  0.80470947  0.78832682  0.32556353    -0.04900
C1362       C  0.81109157  0.77915627  0.34095452     0.09200
C1363       C  0.80929113  0.76028884  0.34232459    -0.02300
C1364       C  0.80111698  0.75053665  0.32828547    -0.00600
C1365       C  0.79464454  0.75968926  0.31286219    -0.04200
C1366       C  0.79649249  0.77860519  0.31149970     0.02800
C1367       C  0.82004309  0.78940217  0.35565379     0.09700
C1368       C  0.81565777  0.75099596  0.35832545     0.35600
C1369       C  0.79040013  0.78799513  0.29544532     0.39000
C1370       C  0.80980080  0.79638334  0.37003139    -0.04500
C1371       C  0.81820612  0.80663555  0.38360691     0.02600
C1372       C  0.83698733  0.80981835  0.38288565    -0.04100
C1373       C  0.84723563  0.80246326  0.36854473    -0.00400
C1374       C  0.83875408  0.79223312  0.35502222    -0.02900
C1375       C  0.79057717  0.79302834  0.37074272     0.36300
C1376       C  0.86656185  0.80507685  0.36772136     0.39900
C1377       C  0.80732662  0.81450710  0.39783978     0.39100
C1378       C  0.84925183  0.78447376  0.34043609     0.36000
C1379       C  0.80660536  0.80777246  0.32429067     0.36700
C1380       C  0.79879187  0.73115850  0.33002594     0.39900
N1381       N  0.79863799  0.82078978  0.40917836    -0.38100
N1382       N  0.77526040  0.79026528  0.37127584    -0.39700
N1383       N  0.88197364  0.80708991  0.36679713    -0.37500
N1384       N  0.85756308  0.77819606  0.32881694    -0.39900
N1385       N  0.82069911  0.74363034  0.37113035    -0.39600
N1386       N  0.79690739  0.71571332  0.33139106    -0.37300
N1387       N  0.78560261  0.79551349  0.28263090    -0.38300
N1388       N  0.80813375  0.82328714  0.32335900    -0.40000
C1389       C  0.83707961  0.84002297  0.47561922    -0.04900
C1390       C  0.84308080  0.82429055  0.48451135     0.09200
C1391       C  0.84906001  0.80937839  0.47432462    -0.02300
C1392       C  0.85056787  0.81076799  0.45539994    -0.00600
C1393       C  0.84562274  0.82694796  0.44660946    -0.04200
C1394       C  0.83811324  0.84124054  0.45668862     0.02800
C1395       C  0.84462440  0.82417421  0.50460771     0.09700
C1396       C  0.85399680  0.79278345  0.48344035     0.35600
C1397       C  0.83126561  0.85712711  0.44752356     0.39000
C1398       C  0.82920427  0.82225058  0.51553133    -0.04500
C1399       C  0.83045281  0.82454290  0.53438940     0.02600
C1400       C  0.84723885  0.82862497  0.54242942    -0.04100
C1401       C  0.86288300  0.82934127  0.53148583    -0.00400
C1402       C  0.86152932  0.82722831  0.51266188    -0.02900
C1403       C  0.81199602  0.81825845  0.50724732     0.36300
C1404       C  0.88048435  0.83215066  0.53950617     0.39900
C1405       C  0.81426657  0.82360339  0.54529930     0.39100
C1406       C  0.87752508  0.82858628  0.50147128     0.36000
C1407       C  0.83031822  0.85515516  0.48601735     0.36700
C1408       C  0.85806376  0.79590749  0.44513284     0.39900
N1409       N  0.80134430  0.82285302  0.55399641    -0.38100
N1410       N  0.79828209  0.81506528  0.50060109    -0.39700
N1411       N  0.89451829  0.83445552  0.54585548    -0.37500
N1412       N  0.89026371  0.82958228  0.49252926    -0.39900
N1413       N  0.85783267  0.77955475  0.49079811    -0.39600
N1414       N  0.86408349  0.78405463  0.43695750    -0.37300
N1415       N  0.82565430  0.86970083  0.44016568    -0.38300
N1416       N  0.82488660  0.86718070  0.49435120    -0.40000
C1417       C  0.83206358  0.59364846  0.80908103    -0.04900
C1418       C  0.82608941  0.60866503  0.81903102     0.09200
C1419       C  0.83046463  0.61035856  0.83742100    -0.02300
C1420       C  0.84121088  0.59719100  0.84583522    -0.00600
C1421       C  0.84790750  0.58244746  0.83571041    -0.04200
C1422       C  0.84303380  0.58059464  0.81733052     0.02800
C1423       C  0.81611915  0.62330201  0.80971057     0.09700
C1424       C  0.82387377  0.62569974  0.84762263     0.35600
C1425       C  0.84954900  0.56550614  0.80668718     0.39000
C1426       C  0.79735611  0.62217614  0.80760259    -0.04500
C1427       C  0.78814074  0.63553095  0.79776610     0.02600
C1428       C  0.79768215  0.65039893  0.79031984    -0.04100
C1429       C  0.81663602  0.65137896  0.79256439    -0.00400
C1430       C  0.82575107  0.63782576  0.80220289    -0.02900
C1431       C  0.78759993  0.60704823  0.81531687     0.36300
C1432       C  0.82697232  0.66622619  0.78505795     0.39900
C1433       C  0.76899798  0.63327614  0.79455346     0.39100
C1434       C  0.84517286  0.63859515  0.80425382     0.36000
C1435       C  0.82703025  0.59180216  0.79025197     0.36700
C1436       C  0.84466391  0.59847682  0.86506164     0.39900
N1437       N  0.75375487  0.63144383  0.79194308    -0.38100
N1438       N  0.77978691  0.59500431  0.82145712    -0.39700
N1439       N  0.83539235  0.67790544  0.77901257    -0.37500
N1440       N  0.86064241  0.63905192  0.80595369    -0.39900
N1441       N  0.81860270  0.63795368  0.85572311    -0.39600
N1442       N  0.84735450  0.59943491  0.88040847    -0.37300
N1443       N  0.85461984  0.55344138  0.79817964    -0.38300
N1444       N  0.82292372  0.59036162  0.77526702    -0.40000
C1445       C  0.84306265  0.33124076  0.83255160    -0.04900
C1446       C  0.82411412  0.33129935  0.83178223     0.09200
C1447       C  0.81427193  0.34526008  0.84012951    -0.02300
C1448       C  0.82336396  0.35932141  0.84899356    -0.00600
C1449       C  0.84236555  0.35932521  0.84977470    -0.04200
C1450       C  0.85219322  0.34508977  0.84174677     0.02800
C1451       C  0.81447779  0.31707929  0.82143198     0.09700
C1452       C  0.79476085  0.34526466  0.83934052     0.35600
C1453       C  0.87171208  0.34496752  0.84235813     0.39000
C1454       C  0.81233827  0.29963780  0.82874761    -0.04500
C1455       C  0.80274747  0.28641436  0.81908644     0.02600
C1456       C  0.79516914  0.29066037  0.80211806    -0.04100
C1457       C  0.79789655  0.30800202  0.79456539    -0.00400
C1458       C  0.80742725  0.32118712  0.80427480    -0.02900
C1459       C  0.81989607  0.29539860  0.84628646     0.36300
C1460       C  0.79051906  0.31254454  0.77701398     0.39900
C1461       C  0.80121897  0.26828032  0.82633357     0.39100
C1462       C  0.80975126  0.33915372  0.79678690     0.36000
C1463       C  0.85313507  0.31721259  0.82335581     0.36700
C1464       C  0.81310209  0.37360300  0.85758953     0.39900
N1465       N  0.80007661  0.25378389  0.83204591    -0.38100
N1466       N  0.82599946  0.29205452  0.86025164    -0.39700
N1467       N  0.78475099  0.31618680  0.76297906    -0.37500
N1468       N  0.81152398  0.35355125  0.79098836    -0.39900
N1469       N  0.77920895  0.34532464  0.83860926    -0.39600
N1470       N  0.80498487  0.38505488  0.86440398    -0.37300
N1471       N  0.88727319  0.34483004  0.84292099    -0.38300
N1472       N  0.86110501  0.30603135  0.81594693    -0.40000
C1473       C  0.83825752  0.49403070  0.84985563    -0.04900
C1474       C  0.85239094  0.48143327  0.84856396     0.09200
C1475       C  0.87022707  0.48742019  0.84598334    -0.02300
C1476       C  0.87409656  0.50597741  0.84588787    -0.00600
C1477       C  0.86011427  0.51865274  0.84830780    -0.04200
C1478       C  0.84205168  0.51265683  0.84943607     0.02800
C1479       C  0.84906008  0.46190648  0.85187632     0.09700
C1480       C  0.88472792  0.47442192  0.84420814     0.35600
C1481       C  0.82740568  0.52551858  0.85093639     0.39000
C1482       C  0.84877276  0.44960048  0.83741279    -0.04500
C1483       C  0.84981774  0.43089584  0.84085418     0.02600
C1484       C  0.85126174  0.42458861  0.85886242    -0.04100
C1485       C  0.84935742  0.43694503  0.87326747    -0.00400
C1486       C  0.84835863  0.45555289  0.86977083    -0.02900
C1487       C  0.84795983  0.45633325  0.81904344     0.36300
C1488       C  0.84835290  0.43052716  0.89174691     0.39900
C1489       C  0.85015354  0.41839495  0.82581880     0.39100
C1490       C  0.84722284  0.46826268  0.88461392     0.36000
C1491       C  0.81995714  0.48776730  0.85252709     0.36700
C1492       C  0.89250302  0.51201884  0.84324085     0.39900
N1493       N  0.85024319  0.40853311  0.81371852    -0.38100
N1494       N  0.84724114  0.46182320  0.80443814    -0.39700
N1495       N  0.84752177  0.42535617  0.90646122    -0.37500
N1496       N  0.84620196  0.47844677  0.89639610    -0.39900
N1497       N  0.89628564  0.46405695  0.84278804    -0.39600
N1498       N  0.90715033  0.51690835  0.84115850    -0.37300
N1499       N  0.81570991  0.53578003  0.85195662    -0.38300
N1500       N  0.80539107  0.48274666  0.85484125    -0.40000
C1501       C  0.16782278  0.78785690  0.62389251    -0.04900
C1502       C  0.17442828  0.79820244  0.63838312     0.09200
C1503       C  0.17165927  0.81701356  0.63872496    -0.02300
C1504       C  0.16150268  0.82535144  0.62503008    -0.00600
C1505       C  0.15406373  0.81483721  0.61095155    -0.04200
C1506       C  0.15758021  0.79609557  0.61024751     0.02800
C1507       C  0.18527178  0.78926706  0.65270141     0.09700
C1508       C  0.17977907  0.82782122  0.65285140     0.35600
C1509       C  0.15048947  0.78514482  0.59566606     0.39000
C1510       C  0.20413507  0.78910212  0.65127102    -0.04500
C1511       C  0.21449923  0.77966511  0.66403582     0.02600
C1512       C  0.20601515  0.77000163  0.67818521    -0.04100
C1513       C  0.18702796  0.77033822  0.67964613    -0.00400
C1514       C  0.17670578  0.78010931  0.66701325    -0.02900
C1515       C  0.21280902  0.79829228  0.63628695     0.36300
C1516       C  0.17809798  0.76093366  0.69430693     0.39900
C1517       C  0.23387881  0.77941942  0.66202132     0.39100
C1518       C  0.15725861  0.78072835  0.66863367     0.36000
C1519       C  0.17204833  0.76877469  0.62278990     0.36700
C1520       C  0.15943843  0.84484046  0.62501247     0.39900
N1521       N  0.24932343  0.77949875  0.66016522    -0.38100
N1522       N  0.21960184  0.80561514  0.62427992    -0.39700
N1523       N  0.17096710  0.75342813  0.70599897    -0.37500
N1524       N  0.14174765  0.78129118  0.66991091    -0.39900
N1525       N  0.18643070  0.83648019  0.66398714    -0.39600
N1526       N  0.15785781  0.86038017  0.62492776    -0.37300
N1527       N  0.14493192  0.77647831  0.58394615    -0.38300
N1528       N  0.17557243  0.75359766  0.62182459    -0.40000
C1529       C  0.15121144  0.78691572  0.35855578    -0.04900
C1530       C  0.16999064  0.78464320  0.35969168     0.09200
C1531       C  0.17923355  0.79076668  0.37513845    -0.02300
C1532       C  0.16989383  0.79999835  0.38896666    -0.00600
C1533       C  0.15104854  0.80266290  0.38771838    -0.04200
C1534       C  0.14173599  0.79564101  0.37256492     0.02800
C1535       C  0.18008621  0.77598894  0.34444721     0.09700
C1536       C  0.19844583  0.78768339  0.37667294     0.35600
C1537       C  0.12229252  0.79699845  0.37144065     0.39000
C1538       C  0.18501671  0.78623623  0.32915471    -0.04500
C1539       C  0.19471331  0.77817765  0.31485686     0.02600
C1540       C  0.19978259  0.75978438  0.31583817    -0.04100
C1541       C  0.19451563  0.74948937  0.33115363    -0.00400
C1542       C  0.18450278  0.75752369  0.34520157    -0.02900
C1543       C  0.17974932  0.80504717  0.32802276     0.36300
C1544       C  0.19971148  0.73067110  0.33282847     0.39900
C1545       C  0.19873415  0.78867573  0.29882556     0.39100
C1546       C  0.17838447  0.74669500  0.36033587     0.36000
C1547       C  0.14165172  0.78026835  0.34285269     0.36700
C1548       C  0.17992922  0.80751172  0.40395549     0.39900
N1549       N  0.20182797  0.79705220  0.28600449    -0.38100
N1550       N  0.17540960  0.82001700  0.32712543    -0.39700
N1551       N  0.20380298  0.71565920  0.33417197    -0.37500
N1552       N  0.17337079  0.73801360  0.37231666    -0.39900
N1553       N  0.21374597  0.78507368  0.37791602    -0.39600
N1554       N  0.18801483  0.81355735  0.41583866    -0.37300
N1555       N  0.10678679  0.79804524  0.37049117    -0.38300
N1556       N  0.13408106  0.77500299  0.33028062    -0.40000
C1557       C  0.13777273  0.80039727  0.47923837    -0.04900
C1558       C  0.13910608  0.81610206  0.48991322     0.09200
C1559       C  0.14047959  0.83312546  0.48152197    -0.02300
C1560       C  0.13973465  0.83457555  0.46261151    -0.00600
C1561       C  0.13802592  0.81890688  0.45178717    -0.04200
C1562       C  0.13744535  0.80176368  0.46020379     0.02800
C1563       C  0.13822061  0.81523910  0.51006483     0.09700
C1564       C  0.14222110  0.84928102  0.49248119     0.35600
C1565       C  0.13544246  0.78559848  0.44938357     0.39000
C1566       C  0.15385292  0.81841768  0.52036232    -0.04500
C1567       C  0.15250102  0.82173013  0.53905274     0.02600
C1568       C  0.13543282  0.82180405  0.54757087    -0.04100
C1569       C  0.11997749  0.81717311  0.53745858    -0.00400
C1570       C  0.12136737  0.81399571  0.51876140    -0.02900
C1571       C  0.17124704  0.81911866  0.51147911     0.36300
C1572       C  0.10261675  0.81550790  0.54630275     0.39900
C1573       C  0.16862450  0.82598161  0.54921820     0.39100
C1574       C  0.10533182  0.81007724  0.50834163     0.36000
C1575       C  0.13617375  0.78291106  0.48787836     0.36700
C1576       C  0.14042586  0.85237581  0.45444383     0.39900
N1577       N  0.18151920  0.82932391  0.55729248    -0.38100
N1578       N  0.18508818  0.81975618  0.50433861    -0.39700
N1579       N  0.08881526  0.81418612  0.55343297    -0.37500
N1580       N  0.09251957  0.80688194  0.50008407    -0.39900
N1581       N  0.14372718  0.86206635  0.50130650    -0.39600
N1582       N  0.14077112  0.86669089  0.44820279    -0.37300
N1583       N  0.13384589  0.77271346  0.44072059    -0.38300
N1584       N  0.13474349  0.76895445  0.49475114    -0.40000
C1585       C  0.82850345  0.14245558  0.63459626    -0.04900
C1586       C  0.83209349  0.16048663  0.63950564     0.09200
C1587       C  0.84547921  0.17033364  0.63014586    -0.02300
C1588       C  0.85531182  0.16208029  0.61606416    -0.00600
C1589       C  0.85148929  0.14412030  0.61107472    -0.04200
C1590       C  0.83794782  0.13441789  0.62023942     0.02800
C1591       C  0.82165002  0.16901545  0.65454215     0.09700
C1592       C  0.84911821  0.18892024  0.63503728     0.35600
C1593       C  0.83354655  0.11617793  0.61470259     0.39000
C1594       C  0.82946959  0.17102239  0.67174996    -0.04500
C1595       C  0.81974694  0.17941233  0.68581041     0.02600
C1596       C  0.80166271  0.18477647  0.68309719    -0.04100
C1597       C  0.79349358  0.18161746  0.66613119    -0.00400
C1598       C  0.80363660  0.17432560  0.65177806    -0.02900
C1599       C  0.84730961  0.16383195  0.67509810     0.36300
C1600       C  0.77470792  0.18608015  0.66325414     0.39900
C1601       C  0.82824427  0.18201568  0.70321902     0.39100
C1602       C  0.79558683  0.17234235  0.63406212     0.36000
C1603       C  0.81525222  0.13206420  0.64454190     0.36700
C1604       C  0.86962184  0.17187246  0.60701946     0.39900
N1605       N  0.83509052  0.18413379  0.71707144    -0.38100
N1606       N  0.86144217  0.15783562  0.67772783    -0.39700
N1607       N  0.75966203  0.18940002  0.66099899    -0.37500
N1608       N  0.78923802  0.17076385  0.61990239    -0.39900
N1609       N  0.85203405  0.20375212  0.63894298    -0.39600
N1610       N  0.88111718  0.17966298  0.59990124    -0.37300
N1611       N  0.82994519  0.10167760  0.61020993    -0.38300
N1612       N  0.80472335  0.12375036  0.65251091    -0.40000
C1613       C  0.82476949  0.15162657  0.37226482    -0.04900
C1614       C  0.82197421  0.14063844  0.35704547     0.09200
C1615       C  0.82898873  0.12305547  0.35650854    -0.02300
C1616       C  0.83831251  0.11613126  0.37150021    -0.00600
C1617       C  0.84153599  0.12722131  0.38684217    -0.04200
C1618       C  0.83483561  0.14514359  0.38696993     0.02800
C1619       C  0.81105048  0.14760618  0.34179506     0.09700
C1620       C  0.82663315  0.11213494  0.34043129     0.35600
C1621       C  0.83875113  0.15729842  0.40179330     0.39000
C1622       C  0.81941439  0.15708266  0.32760822    -0.04500
C1623       C  0.80884332  0.16576537  0.31448007     0.02600
C1624       C  0.78985857  0.16500729  0.31558559    -0.04100
C1625       C  0.78155565  0.15462407  0.32930654    -0.00400
C1626       C  0.79218715  0.14592386  0.34236804    -0.02900
C1627       C  0.83888764  0.15821613  0.32682534     0.36300
C1628       C  0.76209235  0.15368106  0.33068616     0.39900
C1629       C  0.81751910  0.17538948  0.29979098     0.39100
C1630       C  0.78376904  0.13574393  0.35683918     0.36000
C1631       C  0.81724399  0.16970368  0.37267006     0.36700
C1632       C  0.84401294  0.09738447  0.37110882     0.39900
N1633       N  0.82442502  0.18305070  0.28806095    -0.38100
N1634       N  0.85442385  0.15907941  0.32622818    -0.39700
N1635       N  0.74658192  0.15288579  0.33186535    -0.37500
N1636       N  0.77716514  0.12762235  0.36843233    -0.39900
N1637       N  0.82490658  0.10348626  0.32755655    -0.39600
N1638       N  0.84856135  0.08244959  0.37071982    -0.37300
N1639       N  0.84185632  0.16709529  0.41353714    -0.38300
N1640       N  0.81111584  0.18405642  0.37287623    -0.40000
C1641       C  0.83843239  0.13043087  0.47899319    -0.04900
C1642       C  0.85415041  0.13369535  0.48912839     0.09200
C1643       C  0.87093416  0.13483222  0.48033292    -0.02300
C1644       C  0.87227532  0.13088125  0.46182799    -0.00600
C1645       C  0.85679381  0.12574198  0.45199539    -0.04200
C1646       C  0.83973908  0.12624673  0.46046270     0.02800
C1647       C  0.85374356  0.13249265  0.50923456     0.09700
C1648       C  0.88699030  0.13918768  0.49057300     0.35600
C1649       C  0.82374028  0.12102824  0.45057279     0.39000
C1650       C  0.85314817  0.11529759  0.51736390    -0.04500
C1651       C  0.85547391  0.11348861  0.53611044     0.02600
C1652       C  0.85928243  0.12881662  0.54685460    -0.04100
C1653       C  0.85914656  0.14615331  0.53873806    -0.00400
C1654       C  0.85607046  0.14796300  0.52001689    -0.02900
C1655       C  0.85094500  0.09931260  0.50624020     0.36300
C1656       C  0.86323415  0.16208026  0.54931711     0.39900
C1657       C  0.85372150  0.09574312  0.54419197     0.39100
C1658       C  0.85587522  0.16566988  0.51167384     0.36000
C1659       C  0.82105114  0.13062030  0.48789429     0.36700
C1660       C  0.88974389  0.13162464  0.45306421     0.39900
N1661       N  0.85216659  0.08144336  0.55027020    -0.38100
N1662       N  0.84926676  0.08663261  0.49729488    -0.39700
N1663       N  0.86655211  0.17482308  0.55769129    -0.37500
N1664       N  0.85567815  0.17978625  0.50498635    -0.39900
N1665       N  0.89974123  0.14275248  0.49877520    -0.39600
N1666       N  0.90369348  0.13208856  0.44612334    -0.37300
N1667       N  0.81099937  0.11674562  0.44270067    -0.38300
N1668       N  0.80719100  0.13086693  0.49502128    -0.40000
C1669       C  0.83557968  0.60362953  0.17413345    -0.04900
C1670       C  0.81686196  0.60567836  0.17201903     0.09200
C1671       C  0.80706901  0.59313196  0.16163107    -0.02300
C1672       C  0.81602234  0.57861128  0.15322922    -0.00600
C1673       C  0.83492256  0.57704366  0.15459015    -0.04200
C1674       C  0.84464000  0.58948944  0.16526169     0.02800
C1675       C  0.80737791  0.62101123  0.18091195     0.09700
C1676       C  0.78783893  0.59549253  0.15924866     0.35600
C1677       C  0.86395148  0.58759219  0.16735698     0.39000
C1678       C  0.80507411  0.63751863  0.17168974    -0.04500
C1679       C  0.79570110  0.65185283  0.17997866     0.02600
C1680       C  0.78842251  0.64958163  0.19745432    -0.04100
C1681       C  0.79089710  0.63301490  0.20666966    -0.00400
C1682       C  0.80065656  0.61894748  0.19855469    -0.02900
C1683       C  0.81268243  0.63977901  0.15380439     0.36300
C1684       C  0.78280698  0.63012214  0.22428313     0.39900
C1685       C  0.79414180  0.66907500  0.17079890     0.39100
C1686       C  0.80404696  0.60241703  0.20848685     0.36000
C1687       C  0.84546774  0.61617962  0.18539638     0.36700
C1688       C  0.80582776  0.56562157  0.14277658     0.39900
N1689       N  0.79300623  0.68283725  0.16349166    -0.38100
N1690       N  0.81886113  0.64150968  0.13956877    -0.39700
N1691       N  0.77623721  0.62792178  0.23827462    -0.37500
N1692       N  0.80689375  0.58935968  0.21656700    -0.39900
N1693       N  0.77253085  0.59752846  0.15726048    -0.39600
N1694       N  0.79765565  0.55519818  0.13454573    -0.37300
N1695       N  0.87936036  0.58608826  0.16899967    -0.38300
N1696       N  0.85325898  0.62619952  0.19445452    -0.40000
C1697       C  0.83461262  0.34134884  0.18864544    -0.04900
C1698       C  0.82557562  0.32703247  0.18000182     0.09200
C1699       C  0.82554757  0.32597223  0.16101292    -0.02300
C1700       C  0.83435608  0.33929080  0.15066466    -0.00600
C1701       C  0.84360487  0.35356471  0.15929294    -0.04200
C1702       C  0.84382286  0.35444164  0.17834159     0.02800
C1703       C  0.81580170  0.31313366  0.19088466     0.09700
C1704       C  0.81643635  0.31109933  0.15216839     0.35600
C1705       C  0.85421662  0.36831700  0.18737270     0.39000
C1706       C  0.79735926  0.31533634  0.19459417    -0.04500
C1707       C  0.78793613  0.30213521  0.20456124     0.02600
C1708       C  0.79697306  0.28649554  0.21101545    -0.04100
C1709       C  0.81556233  0.28436460  0.20709999    -0.00400
C1710       C  0.82487612  0.29764992  0.19710177    -0.02900
C1711       C  0.78811019  0.33133415  0.18812638     0.36300
C1712       C  0.82511366  0.26824635  0.21273712     0.39900
C1713       C  0.76900097  0.30505647  0.20839241     0.39100
C1714       C  0.84382894  0.29535485  0.19298324     0.36000
C1715       C  0.83441979  0.34255350  0.20816936     0.36700
C1716       C  0.83347750  0.33849649  0.13112703     0.39900
N1717       N  0.75388263  0.30744838  0.21129144    -0.38100
N1718       N  0.78081557  0.34411596  0.18293354    -0.39700
N1719       N  0.83278910  0.25540979  0.21719611    -0.37500
N1720       N  0.85893912  0.29357915  0.18964391    -0.39900
N1721       N  0.80919955  0.29917866  0.14518116    -0.39600
N1722       N  0.83267457  0.33780344  0.11555126    -0.37300
N1723       N  0.86264426  0.37931694  0.19452536    -0.38300
N1724       N  0.83420271  0.34353439  0.22374873    -0.40000
C1725       C  0.83587710  0.44323482  0.14643243    -0.04900
C1726       C  0.85016800  0.45522803  0.14301383     0.09200
C1727       C  0.86769932  0.44848663  0.14054870    -0.02300
C1728       C  0.87083633  0.42974318  0.14044096    -0.00600
C1729       C  0.85635580  0.41742495  0.14290247    -0.04200
C1730       C  0.83891211  0.42440127  0.14652690     0.02800
C1731       C  0.84701384  0.47511835  0.14198509     0.09700
C1732       C  0.88259464  0.46097944  0.13825055     0.35600
C1733       C  0.82387630  0.41240063  0.14994994     0.39000
C1734       C  0.84913857  0.48589063  0.15750052    -0.04500
C1735       C  0.84894059  0.50488174  0.15605824     0.02600
C1736       C  0.84706203  0.51314026  0.13896136    -0.04100
C1737       C  0.84409260  0.50227861  0.12355532    -0.00400
C1738       C  0.84377341  0.48333114  0.12513728    -0.02900
C1739       C  0.85236162  0.47730618  0.17478566     0.36300
C1740       C  0.84179308  0.51059602  0.10596245     0.39900
C1741       C  0.85186400  0.51581736  0.17199525     0.39100
C1742       C  0.84057779  0.47222353  0.10935544     0.36000
C1743       C  0.81802226  0.45038873  0.14978298     0.36700
C1744       C  0.88916835  0.42336207  0.13810858     0.39900
N1745       N  0.85417863  0.52451044  0.18474533    -0.38100
N1746       N  0.85499704  0.47026723  0.18847163    -0.39700
N1747       N  0.84013035  0.51729195  0.09194882    -0.37500
N1748       N  0.83790210  0.46337314  0.09678518    -0.39900
N1749       N  0.89444518  0.47097442  0.13655850    -0.39600
N1750       N  0.90380900  0.41842039  0.13611892    -0.37300
N1751       N  0.81182799  0.40293129  0.15285753    -0.38300
N1752       N  0.80382087  0.45618723  0.15250059    -0.40000
C1753       C  0.64924941  0.76763871  0.18659504    -0.04900
C1754       C  0.65028309  0.78651239  0.18473432     0.09200
C1755       C  0.66526085  0.79587356  0.19161908    -0.02300
C1756       C  0.67898848  0.78649504  0.20082389    -0.00600
C1757       C  0.67807128  0.76743861  0.20287468    -0.04200
C1758       C  0.66301925  0.75809121  0.19557506     0.02800
C1759       C  0.63558979  0.79662213  0.17536066     0.09700
C1760       C  0.66657739  0.81524851  0.18903980     0.35600
C1761       C  0.66110368  0.73871769  0.19780311     0.39000
C1762       C  0.62008395  0.80196125  0.18492519    -0.04500
C1763       C  0.60641951  0.81190221  0.17618854     0.02600
C1764       C  0.60817449  0.81661218  0.15770802    -0.04100
C1765       C  0.62389421  0.81118126  0.14820686    -0.00400
C1766       C  0.63739724  0.80111030  0.15699780    -0.02900
C1767       C  0.61830611  0.79727588  0.20385751     0.36300
C1768       C  0.62626594  0.81560531  0.12927406     0.39900
C1769       C  0.59093732  0.81783950  0.18653985     0.39100
C1770       C  0.65318941  0.79513286  0.14712955     0.36000
C1771       C  0.63390058  0.75805367  0.17921700     0.36700
C1772       C  0.69403308  0.79667382  0.20803586     0.39900
N1773       N  0.57860376  0.82255007  0.19483873    -0.38100
N1774       N  0.61693530  0.79347565  0.21894495    -0.39700
N1775       N  0.62835502  0.81921380  0.11421896    -0.37500
N1776       N  0.66578892  0.79025968  0.13934743    -0.39900
N1777       N  0.66766223  0.83067208  0.18683293    -0.39600
N1778       N  0.70589703  0.80488491  0.21392821    -0.37300
N1779       N  0.65948412  0.72327177  0.19949656    -0.38300
N1780       N  0.62165143  0.75044123  0.17332251    -0.40000
C1781       C  0.36888464  0.77554107  0.16150186    -0.04900
C1782       C  0.35701944  0.78420878  0.17361915     0.09200
C1783       C  0.35982777  0.80249838  0.17804707    -0.02300
C1784       C  0.37383470  0.81231227  0.16974380    -0.00600
C1785       C  0.38518089  0.80390366  0.15695351    -0.04200
C1786       C  0.38297652  0.78535024  0.15321564     0.02800
C1787       C  0.34163651  0.77405292  0.18193080     0.09700
C1788       C  0.34827085  0.81119947  0.19119505     0.35600
C1789       C  0.39484830  0.77649313  0.14045908     0.39000
C1790       C  0.34403851  0.76488385  0.19841229    -0.04500
C1791       C  0.32952349  0.75557435  0.20646178     0.02600
C1792       C  0.31238706  0.75534082  0.19806549    -0.04100
C1793       C  0.31007727  0.76439935  0.18142701    -0.00400
C1794       C  0.32458853  0.77392462  0.17353500    -0.02900
C1795       C  0.36147927  0.76525208  0.20717761     0.36300
C1796       C  0.29265057  0.76436050  0.17265682     0.39900
C1797       C  0.33246123  0.74575960  0.22315423     0.39100
C1798       C  0.32190165  0.78402627  0.15699234     0.36000
C1799       C  0.36646252  0.75655029  0.15750151     0.36700
C1800       C  0.37681219  0.83103929  0.17461199     0.39900
N1801       N  0.33485045  0.73792785  0.23645446    -0.38100
N1802       N  0.37540288  0.76564617  0.21413730    -0.39700
N1803       N  0.27874629  0.76427685  0.16564649    -0.37500
N1804       N  0.31974599  0.79223013  0.14387909    -0.39900
N1805       N  0.33909030  0.81811633  0.20174210    -0.39600
N1806       N  0.37929660  0.84595231  0.17850529    -0.37300
N1807       N  0.40436523  0.76941836  0.13032037    -0.38300
N1808       N  0.36451990  0.74137721  0.15437753    -0.40000
C1809       C  0.47507441  0.81591211  0.15894108    -0.04900
C1810       C  0.48604472  0.82052293  0.14411362     0.09200
C1811       C  0.47806726  0.82444826  0.12732574    -0.02300
C1812       C  0.45918448  0.82460366  0.12552270    -0.00600
C1813       C  0.44797419  0.82087787  0.14061613    -0.04200
C1814       C  0.45611937  0.81603682  0.15724025     0.02800
C1815       C  0.50591404  0.82307300  0.14637548     0.09700
C1816       C  0.48940955  0.82898304  0.11200608     0.35600
C1817       C  0.44513351  0.81223557  0.17297554     0.39000
C1818       C  0.51786822  0.80837053  0.14478340    -0.04500
C1819       C  0.53665501  0.81135900  0.14444521     0.02600
C1820       C  0.54355332  0.82912275  0.14558363    -0.04100
C1821       C  0.53152298  0.84370458  0.14817603    -0.00400
C1822       C  0.51280947  0.84066729  0.14855767    -0.02900
C1823       C  0.51078247  0.79026868  0.14270309     0.36300
C1824       C  0.53834740  0.86192933  0.15033445     0.39900
C1825       C  0.54877616  0.79625827  0.14177220     0.39100
C1826       C  0.50050100  0.85574591  0.15053611     0.36000
C1827       C  0.48333865  0.81180997  0.17617491     0.36700
C1828       C  0.45144692  0.82876202  0.10802534     0.39900
N1829       N  0.55849463  0.78424908  0.13961688    -0.38100
N1830       N  0.50514578  0.77581065  0.14102474    -0.39700
N1831       N  0.54374122  0.87648352  0.15201009    -0.37500
N1832       N  0.49057456  0.86768505  0.15201102    -0.39900
N1833       N  0.49851131  0.83268555  0.09987419    -0.39600
N1834       N  0.44538548  0.83223503  0.09406935    -0.37300
N1835       N  0.43637575  0.80919980  0.18554013    -0.38300
N1836       N  0.48994271  0.80856360  0.18993042    -0.40000
C1837       C  0.64592000  0.12381722  0.82912984    -0.04900
C1838       C  0.64775541  0.14276123  0.82962944     0.09200
C1839       C  0.63481713  0.15318424  0.83895553    -0.02300
C1840       C  0.62016196  0.14470133  0.84771890    -0.00600
C1841       C  0.61799951  0.12578616  0.84668189    -0.04200
C1842       C  0.63085517  0.11542845  0.83713316     0.02800
C1843       C  0.66238459  0.15181534  0.81896126     0.09700
C1844       C  0.63652914  0.17267656  0.83937330     0.35600
C1845       C  0.62819799  0.09616682  0.83485998     0.39000
C1846       C  0.66110242  0.15253958  0.79996676    -0.04500
C1847       C  0.67424318  0.16172407  0.78976986     0.02600
C1848       C  0.68866165  0.17057573  0.79848294    -0.04100
C1849       C  0.69021973  0.16949365  0.81745422    -0.00400
C1850       C  0.67729880  0.15984743  0.82762970    -0.02900
C1851       C  0.64615607  0.14382994  0.79087836     0.36300
C1852       C  0.70536205  0.17795492  0.82643731     0.39900
C1853       C  0.67250771  0.16253985  0.77029577     0.39100
C1854       C  0.67961080  0.15775607  0.84693394     0.36000
C1855       C  0.65959763  0.11296289  0.82032887     0.36700
C1856       C  0.60764091  0.15538814  0.85824771     0.39900
N1857       N  0.67106082  0.16307846  0.75476713    -0.38100
N1858       N  0.63432110  0.13672289  0.78365736    -0.39700
N1859       N  0.71747303  0.18474308  0.83351072    -0.37500
N1860       N  0.68164929  0.15598382  0.86231030    -0.39900
N1861       N  0.63795989  0.18822508  0.83967333    -0.39600
N1862       N  0.59771264  0.16391721  0.86673281    -0.37300
N1863       N  0.62597894  0.08084296  0.83285167    -0.38300
N1864       N  0.67056530  0.10434946  0.81334976    -0.40000
C1865       C  0.33286697  0.15729461  0.82174981    -0.04900
C1866       C  0.34816357  0.15102989  0.81228156     0.09200
C1867       C  0.34942533  0.15399444  0.79352378    -0.02300
C1868       C  0.33562959  0.16325681  0.78430571    -0.00600
C1869       C  0.32018814  0.16930562  0.79364762    -0.04200
C1870       C  0.31889487  0.16637469  0.81245844     0.02800
C1871       C  0.36329148  0.14175667  0.82203437     0.09700
C1872       C  0.36514075  0.14772571  0.78375186     0.35600
C1873       C  0.30313419  0.17254332  0.82221107     0.39000
C1874       C  0.36490523  0.12279221  0.82151716    -0.04500
C1875       C  0.37937929  0.11412392  0.83030660     0.02600
C1876       C  0.39237746  0.12433108  0.83985110    -0.04100
C1877       C  0.39108874  0.14338119  0.83977591    -0.00400
C1878       C  0.37659032  0.15202158  0.83093590    -0.02900
C1879       C  0.35176952  0.11219687  0.81168352     0.36300
C1880       C  0.40444040  0.15420302  0.84900240     0.39900
C1881       C  0.38128021  0.09467978  0.82888098     0.39100
C1882       C  0.37540262  0.17155813  0.83078116     0.36000
C1883       C  0.33157900  0.15440962  0.84106008     0.36700
C1884       C  0.33782712  0.16748610  0.76533492     0.39900
N1885       N  0.38290702  0.07919193  0.82770881    -0.38100
N1886       N  0.34137473  0.10371866  0.80374889    -0.39700
N1887       N  0.41501228  0.16309840  0.85620011    -0.37500
N1888       N  0.37439754  0.18714039  0.83057343    -0.39900
N1889       N  0.37767399  0.14263766  0.77600403    -0.39600
N1890       N  0.33970967  0.17107384  0.75026113    -0.37300
N1891       N  0.29057729  0.17749056  0.83002211    -0.38300
N1892       N  0.33062078  0.15212626  0.85648068    -0.40000
C1893       C  0.48445807  0.12895558  0.85888741    -0.04900
C1894       C  0.49478658  0.11455017  0.85186322     0.09200
C1895       C  0.48580779  0.09954308  0.84427604    -0.02300
C1896       C  0.46680858  0.09862474  0.84459629    -0.00600
C1897       C  0.45667047  0.11195076  0.85364366    -0.04200
C1898       C  0.46555117  0.12738072  0.86041271     0.02800
C1899       C  0.51493431  0.11450289  0.85430354     0.09700
C1900       C  0.49605463  0.08472457  0.83670973     0.35600
C1901       C  0.45549519  0.14117511  0.86989246     0.39000
C1902       C  0.52216032  0.11305357  0.87186900    -0.04500
C1903       C  0.54092464  0.11336145  0.87460002     0.02600
C1904       C  0.55290908  0.11403432  0.85971481    -0.04100
C1905       C  0.54569240  0.11606895  0.84213938    -0.00400
C1906       C  0.52679702  0.11639638  0.83948370    -0.02900
C1907       C  0.51021496  0.11101050  0.88726061     0.36300
C1908       C  0.55760440  0.11745839  0.82669463     0.39900
C1909       C  0.54780983  0.11360455  0.89292909     0.39100
C1910       C  0.51954510  0.11858405  0.82146953     0.36000
C1911       C  0.49347454  0.14519425  0.86502786     0.36700
C1912       C  0.45756299  0.08418701  0.83523003     0.39900
N1913       N  0.55320196  0.11391872  0.90756693    -0.38100
N1914       N  0.50067426  0.10945931  0.89951614    -0.39700
N1915       N  0.56712420  0.11869604  0.81438474    -0.37500
N1916       N  0.51376921  0.12024205  0.80707137    -0.39900
N1917       N  0.50414188  0.07284720  0.83063068    -0.39600
N1918       N  0.45005676  0.07297303  0.82742000    -0.37300
N1919       N  0.44778367  0.15224356  0.87772541    -0.38300
N1920       N  0.50085221  0.15807631  0.86982485    -0.40000
C1921       C  0.62151460  0.14571466  0.17562088    -0.04900
C1922       C  0.63847670  0.15058442  0.16858160     0.09200
C1923       C  0.64243526  0.14681461  0.15037033    -0.02300
C1924       C  0.62969408  0.13793152  0.13933371    -0.00600
C1925       C  0.61274976  0.13249967  0.14644494    -0.04200
C1926       C  0.60873889  0.13668175  0.16470727     0.02800
C1927       C  0.65184495  0.16057591  0.18011475     0.09700
C1928       C  0.65958847  0.15246503  0.14289179     0.35600
C1929       C  0.59164102  0.13143010  0.17256013     0.39000
C1930       C  0.66448138  0.15111471  0.19073695    -0.04500
C1931       C  0.67694095  0.16060927  0.20161325     0.02600
C1932       C  0.67699448  0.17972152  0.20187551    -0.04100
C1933       C  0.66435029  0.18915660  0.19107236    -0.00400
C1934       C  0.65187095  0.17960597  0.18030425    -0.02900
C1935       C  0.66487375  0.13156659  0.19018775     0.36300
C1936       C  0.66382933  0.20873034  0.19124564     0.39900
C1937       C  0.69023076  0.15067827  0.21194731     0.39100
C1938       C  0.63900496  0.18931903  0.16924907     0.36000
C1939       C  0.61716726  0.15027948  0.19414236     0.36700
C1940       C  0.63392927  0.13509999  0.12042637     0.39900
N1941       N  0.70090921  0.14287446  0.22020459    -0.38100
N1942       N  0.66527048  0.11596341  0.18971131    -0.39700
N1943       N  0.66334537  0.22434262  0.19128230    -0.37500
N1944       N  0.62869443  0.19688925  0.16033496    -0.39900
N1945       N  0.67324149  0.15706345  0.13693405    -0.39600
N1946       N  0.63738707  0.13289159  0.10535930    -0.37300
N1947       N  0.57798347  0.12734602  0.17887709    -0.38300
N1948       N  0.61376536  0.15405984  0.20890160    -0.40000
C1949       C  0.36849815  0.12828537  0.17585853    -0.04900
C1950       C  0.36582130  0.14705933  0.17433250     0.09200
C1951       C  0.37688198  0.15731824  0.16273521    -0.02300
C1952       C  0.39018794  0.14874043  0.15220224    -0.00600
C1953       C  0.39223836  0.12977911  0.15297605    -0.04200
C1954       C  0.38160151  0.11964698  0.16516305     0.02800
C1955       C  0.35140879  0.15606507  0.18512202     0.09700
C1956       C  0.37447131  0.17671832  0.16165165     0.35600
C1957       C  0.38450462  0.10038247  0.16712587     0.39000
C1958       C  0.35435717  0.16008401  0.20345526    -0.04500
C1959       C  0.34081588  0.16858518  0.21368642     0.02600
C1960       C  0.32413943  0.17313333  0.20560037    -0.04100
C1961       C  0.32112217  0.16876903  0.18726766    -0.00400
C1962       C  0.33477641  0.16039012  0.17704891    -0.02900
C1963       C  0.37147501  0.15560480  0.21172101     0.36300
C1964       C  0.30374405  0.17224286  0.17905468     0.39900
C1965       C  0.34436374  0.17306840  0.23241278     0.39100
C1966       C  0.33172775  0.15616702  0.15819174     0.36000
C1967       C  0.35779718  0.11790851  0.18855498     0.36700
C1968       C  0.40146248  0.15943226  0.14031229     0.39900
N1969       N  0.34716690  0.17657609  0.24736123    -0.38100
N1970       N  0.38512076  0.15196863  0.21828576    -0.39700
N1971       N  0.28984815  0.17493373  0.17255543    -0.37500
N1972       N  0.32930977  0.15287678  0.14312916    -0.39900
N1973       N  0.37245885  0.19218281  0.16082366    -0.39600
N1974       N  0.41052135  0.16802650  0.13093929    -0.37300
N1975       N  0.38686722  0.08502938  0.16873327    -0.38300
N1976       N  0.34933817  0.10973290  0.19882361    -0.40000
C1977       C  0.48264644  0.12269384  0.14474092    -0.04900
C1978       C  0.49183747  0.12381579  0.12810719     0.09200
C1979       C  0.48185810  0.12475273  0.11192924    -0.02300
C1980       C  0.46288969  0.12335562  0.11233931    -0.00600
C1981       C  0.45378077  0.12068322  0.12890206    -0.04200
C1982       C  0.46370953  0.12110996  0.14517624     0.02800
C1983       C  0.51197152  0.12196586  0.12763758     0.09700
C1984       C  0.49114792  0.12658965  0.09481456     0.35600
C1985       C  0.45462154  0.11901936  0.16237505     0.39000
C1986       C  0.51974978  0.10467972  0.12931557    -0.04500
C1987       C  0.53861335  0.10255297  0.12888645     0.02600
C1988       C  0.55001572  0.11776679  0.12693635    -0.04100
C1989       C  0.54219111  0.13513813  0.12562491    -0.00400
C1990       C  0.52325198  0.13721966  0.12609515    -0.02900
C1991       C  0.50823655  0.08906036  0.13194816     0.36300
C1992       C  0.55357323  0.15083690  0.12313110     0.39900
C1993       C  0.54618988  0.08462725  0.13093121     0.39100
C1994       C  0.51534893  0.15508125  0.12539495     0.36000
C1995       C  0.49286446  0.12244039  0.16139455     0.36700
C1996       C  0.45267748  0.12494668  0.09573515     0.39900
N1997       N  0.55202429  0.07024236  0.13255361    -0.38100
N1998       N  0.49898577  0.07670819  0.13427064    -0.39700
N1999       N  0.56270577  0.16332727  0.12109791    -0.37500
N2000       N  0.50906756  0.16936297  0.12498434    -0.39900
N2001       N  0.49850696  0.12807840  0.08112425    -0.39600
N2002       N  0.44442408  0.12634308  0.08257501    -0.37300
N2003       N  0.44739162  0.11740824  0.17612047    -0.38300
N2004       N  0.50115596  0.12219606  0.17459489    -0.40000
C2005       C  0.15169585  0.58961726  0.19178191    -0.04900
C2006       C  0.15895750  0.60212149  0.17936504     0.09200
C2007       C  0.15728362  0.59884349  0.16072575    -0.02300
C2008       C  0.14885332  0.58295647  0.15448917    -0.00600
C2009       C  0.14142837  0.57033321  0.16690431    -0.04200
C2010       C  0.14271907  0.57396469  0.18561815     0.02800
C2011       C  0.16920045  0.61831279  0.18594562     0.09700
C2012       C  0.16426839  0.61193230  0.14793224     0.35600
C2013       C  0.13405009  0.56214081  0.19859016     0.39000
C2014       C  0.18813987  0.61784820  0.18646031    -0.04500
C2015       C  0.19793639  0.63235433  0.19393735     0.02600
C2016       C  0.18887506  0.64790748  0.20055237    -0.04100
C2017       C  0.16984242  0.64875664  0.19886305    -0.00400
C2018       C  0.16009505  0.63394702  0.19179448    -0.02900
C2019       C  0.19756411  0.60221495  0.17940209     0.36300
C2020       C  0.16018695  0.66497913  0.20398198     0.39900
C2021       C  0.21731919  0.63063557  0.19553601     0.39100
C2022       C  0.14063947  0.63475746  0.19044685     0.36000
C2023       C  0.15351231  0.59289154  0.21097827     0.36700
C2024       C  0.14820572  0.57961144  0.13520052     0.39900
N2025       N  0.23276990  0.62915998  0.19679194    -0.38100
N2026       N  0.20501880  0.58979988  0.17359449    -0.39700
N2027       N  0.15241320  0.67791382  0.20795732    -0.37500
N2028       N  0.12511936  0.63535375  0.18934134    -0.39900
N2029       N  0.16979870  0.62239844  0.13773927    -0.39600
N2030       N  0.14765625  0.57706557  0.11980506    -0.37300
N2031       N  0.12701373  0.55277449  0.20892260    -0.38300
N2032       N  0.15499081  0.59550398  0.22629461    -0.40000
C2033       C  0.15832302  0.31901746  0.18811468    -0.04900
C2034       C  0.17701254  0.32140579  0.19030672     0.09200
C2035       C  0.18567948  0.33633097  0.18227738    -0.02300
C2036       C  0.17565307  0.34882589  0.17203165    -0.00600
C2037       C  0.15683390  0.34667196  0.17018326    -0.04200
C2038       C  0.14821705  0.33169538  0.17826798     0.02800
C2039       C  0.18752553  0.30765195  0.20056149     0.09700
C2040       C  0.20492810  0.33870058  0.18445657     0.35600
C2041       C  0.12887147  0.32947957  0.17683774     0.39000
C2042       C  0.19705420  0.29415857  0.19117161    -0.04500
C2043       C  0.20581782  0.28029008  0.20073397     0.02600
C2044       C  0.20491241  0.27969402  0.21978763    -0.04100
C2045       C  0.19489304  0.29297906  0.22915711    -0.00400
C2046       C  0.18667346  0.30719880  0.21956756    -0.02900
C2047       C  0.19760914  0.29445388  0.17160722     0.36300
C2048       C  0.19299011  0.29211472  0.24863277     0.39900
C2049       C  0.21503732  0.26612256  0.19087608     0.39100
C2050       C  0.17751857  0.32155715  0.22921008     0.36000
C2051       C  0.14955904  0.30329723  0.19583574     0.36700
C2052       C  0.18483229  0.36340064  0.16271543     0.39900
N2053       N  0.22232325  0.25475920  0.18304823    -0.38100
N2054       N  0.19804366  0.29476770  0.15600361    -0.39700
N2055       N  0.19120532  0.29132412  0.26413084    -0.37500
N2056       N  0.17033686  0.33311641  0.23684807    -0.39900
N2057       N  0.22029038  0.34056520  0.18617972    -0.39600
N2058       N  0.19215843  0.37493657  0.15515233    -0.37300
N2059       N  0.11344523  0.32770681  0.17568547    -0.38300
N2060       N  0.14268626  0.29069943  0.20199171    -0.40000
C2061       C  0.13443430  0.43473293  0.18072792    -0.04900
C2062       C  0.13610329  0.44707718  0.16633005     0.09200
C2063       C  0.13976066  0.44072154  0.14876287    -0.02300
C2064       C  0.14073360  0.42205516  0.14541848    -0.00600
C2065       C  0.13807748  0.40963315  0.15965569    -0.04200
C2066       C  0.13549012  0.41601858  0.17742360     0.02800
C2067       C  0.13267118  0.46672778  0.16919238     0.09700
C2068       C  0.14213661  0.45343507  0.13404560     0.35600
C2069       C  0.13305851  0.40335322  0.19216074     0.39000
C2070       C  0.14712663  0.47892373  0.17074695    -0.04500
C2071       C  0.14398393  0.49771206  0.17009555     0.02600
C2072       C  0.12624930  0.50438231  0.16792971    -0.04100
C2073       C  0.11165102  0.49199699  0.16816445    -0.00400
C2074       C  0.11490002  0.47327015  0.16853483    -0.02900
C2075       C  0.16533636  0.47202637  0.17200069     0.36300
C2076       C  0.09320166  0.49840885  0.16739797     0.39900
C2077       C  0.15919095  0.50995403  0.17026624     0.39100
C2078       C  0.10001296  0.46064099  0.16715974     0.36000
C2079       C  0.13119692  0.44132558  0.19884535     0.36700
C2080       C  0.14456818  0.41562845  0.12731156     0.39900
N2081       N  0.17133947  0.51972341  0.17038985    -0.38100
N2082       N  0.17984443  0.46644755  0.17294362    -0.39700
N2083       N  0.07845532  0.50337811  0.16669149    -0.37500
N2084       N  0.08823279  0.45049302  0.16598361    -0.39900
N2085       N  0.14410726  0.46358349  0.12233173    -0.39600
N2086       N  0.14762812  0.41045445  0.11290114    -0.37300
N2087       N  0.13116427  0.39318818  0.20387446    -0.38300
N2088       N  0.12861374  0.44657993  0.21331420    -0.40000
C2089       C  0.33911348  0.28897016  0.14176020    -0.04900
C2090       C  0.32076064  0.29244191  0.14529769     0.09200
C2091       C  0.31147321  0.30541061  0.13489542    -0.02300
C2092       C  0.32056501  0.31507317  0.12122909    -0.00600
C2093       C  0.33895061  0.31171411  0.11786426    -0.04200
C2094       C  0.34820191  0.29866186  0.12815040     0.02800
C2095       C  0.31131781  0.28266741  0.16025982     0.09700
C2096       C  0.29259919  0.30889763  0.13844443     0.35600
C2097       C  0.36714985  0.29532435  0.12474807     0.39000
C2098       C  0.30835121  0.29128914  0.17697075    -0.04500
C2099       C  0.29974906  0.28198041  0.19122280     0.02600
C2100       C  0.29435463  0.26379353  0.18896561    -0.04100
C2101       C  0.29712542  0.25531668  0.17201962    -0.00400
C2102       C  0.30536199  0.26480544  0.15771620    -0.02900
C2103       C  0.31411084  0.30983742  0.17939221     0.36300
C2104       C  0.29088690  0.23700570  0.16895857     0.39900
C2105       C  0.29679407  0.29110201  0.20826710     0.39100
C2106       C  0.30725228  0.25639020  0.14014292     0.36000
C2107       C  0.34869792  0.27555037  0.15226359     0.36700
C2108       C  0.31120141  0.32896155  0.11113954     0.39900
N2109       N  0.29440310  0.29850171  0.22180209    -0.38100
N2110       N  0.31865695  0.32466933  0.18114342    -0.39700
N2111       N  0.28594058  0.22239691  0.16653979    -0.37500
N2112       N  0.30863079  0.24975137  0.12608282    -0.39900
N2113       N  0.27755643  0.31164852  0.14140248    -0.39600
N2114       N  0.30371005  0.34011297  0.10319869    -0.37300
N2115       N  0.38226924  0.29282644  0.12195761    -0.38300
N2116       N  0.35637503  0.26480284  0.16057071    -0.40000
C2117       C  0.31810621  0.29344077  0.87820606    -0.04900
C2118       C  0.32946403  0.28522298  0.86532243     0.09200
C2119       C  0.34827708  0.28572239  0.86764317    -0.02300
C2120       C  0.35573610  0.29477629  0.88254438    -0.00600
C2121       C  0.34444026  0.30383636  0.89493562    -0.04200
C2122       C  0.32557418  0.30291667  0.89288138     0.02800
C2123       C  0.32159541  0.27649090  0.84899497     0.09700
C2124       C  0.35997285  0.27741159  0.85434461     0.35600
C2125       C  0.31387565  0.31265816  0.90516357     0.39000
C2126       C  0.31473123  0.28722169  0.83483887    -0.04500
C2127       C  0.30609149  0.27904064  0.82001288     0.02600
C2128       C  0.30511395  0.26002528  0.81887288    -0.04100
C2129       C  0.31319871  0.24933361  0.83246957    -0.00400
C2130       C  0.32102362  0.25753837  0.84766104    -0.02900
C2131       C  0.31687239  0.30667385  0.83547988     0.36300
C2132       C  0.31305019  0.22979985  0.83116955     0.39900
C2133       C  0.29859721  0.29019584  0.80579708     0.39100
C2134       C  0.32826198  0.24644125  0.86206862     0.36000
C2135       C  0.29872861  0.29252533  0.87605732     0.36700
C2136       C  0.37508840  0.29476658  0.88508252     0.39900
N2137       N  0.29265617  0.29919469  0.79450928    -0.38100
N2138       N  0.31879432  0.32216120  0.83604830    -0.39700
N2139       N  0.31311324  0.21423725  0.82998993    -0.37500
N2140       N  0.33404702  0.23750735  0.87348462    -0.39900
N2141       N  0.36926947  0.27079072  0.84370829    -0.39600
N2142       N  0.39053001  0.29464620  0.88703520    -0.37300
N2143       N  0.30458297  0.32053190  0.91491413    -0.38300
N2144       N  0.28327591  0.29182338  0.87429239    -0.40000
C2145       C  0.35549896  0.30741836  0.98605922    -0.04900
C2146       C  0.35071184  0.32281119  0.99614598     0.09200
C2147       C  0.34581964  0.33888320  0.98721216    -0.02300
C2148       C  0.34623119  0.33971483  0.96823157    -0.00600
C2149       C  0.35176506  0.32452969  0.95809510    -0.04200
C2150       C  0.35607023  0.30825644  0.96706925     0.02800
C2151       C  0.35237373  0.32257077  0.01620464     0.09700
C2152       C  0.34114629  0.35480722  0.99759025     0.35600
C2153       C  0.36229486  0.29274305  0.95691195     0.39000
C2154       C  0.36941137  0.32481651  0.02414517    -0.04500
C2155       C  0.37113834  0.32525382  0.04303652     0.02600
C2156       C  0.35565609  0.32423538  0.05424806    -0.04100
C2157       C  0.33864779  0.32102686  0.04615973    -0.00400
C2158       C  0.33710469  0.32007956  0.02719224    -0.02900
C2159       C  0.38522765  0.32677472  0.01277492     0.36300
C2160       C  0.32257616  0.31909921  0.05710058     0.39900
C2161       C  0.38905723  0.32618770  0.05074164     0.39100
C2162       C  0.31980535  0.31655560  0.01886841     0.36000
C2163       C  0.36069256  0.29099699  0.99536124     0.36700
C2164       C  0.34114470  0.35630476  0.95913952     0.39900
N2165       N  0.40347103  0.32687297  0.05658017    -0.38100
N2166       N  0.39782391  0.32828683  0.00370401    -0.39700
N2167       N  0.30966689  0.31739601  0.06568215    -0.37500
N2168       N  0.30605952  0.31365165  0.01215424    -0.39900
N2169       N  0.33748470  0.36755436  0.00582228    -0.39600
N2170       N  0.33710653  0.36954244  0.95190574    -0.37300
N2171       N  0.36732808  0.28037846  0.94882689    -0.38300
N2172       N  0.36494422  0.27801163  0.00291748    -0.40000
C2173       C  0.17167836  0.25877004  0.33585435    -0.04900
C2174       C  0.15578841  0.26254411  0.32615289     0.09200
C2175       C  0.15484643  0.25836448  0.30764089    -0.02300
C2176       C  0.16969191  0.25048426  0.29881268    -0.00600
C2177       C  0.18580454  0.24687112  0.30841182    -0.04200
C2178       C  0.18664312  0.25093464  0.32705148     0.02800
C2179       C  0.14039274  0.27205053  0.33508901     0.09700
C2180       C  0.13857577  0.26240181  0.29761685     0.35600
C2181       C  0.20306784  0.24767546  0.33708254     0.39000
C2182       C  0.13878802  0.29093263  0.33336992    -0.04500
C2183       C  0.12427290  0.30007382  0.34150872     0.02600
C2184       C  0.11124581  0.29040596  0.35153135    -0.04100
C2185       C  0.11267926  0.27144294  0.35300292    -0.00400
C2186       C  0.12724191  0.26228883  0.34480637    -0.02900
C2187       C  0.15212123  0.30092409  0.32310799     0.36300
C2188       C  0.09945214  0.26140334  0.36332641     0.39900
C2189       C  0.12247889  0.31942786  0.33913093     0.39100
C2190       C  0.12873752  0.24283726  0.34634327     0.36000
C2191       C  0.17271200  0.26338076  0.35483292     0.36700
C2192       C  0.16807046  0.24561077  0.27990738     0.39900
N2193       N  0.12098563  0.33485494  0.33721399    -0.38100
N2194       N  0.16278787  0.30878310  0.31486222    -0.39700
N2195       N  0.08892797  0.25334841  0.37156889    -0.37500
N2196       N  0.12993512  0.22731324  0.34757265    -0.39900
N2197       N  0.12562778  0.26570720  0.28961557    -0.39600
N2198       N  0.16683030  0.24171584  0.26484093    -0.37300
N2199       N  0.21616515  0.24509855  0.34511198    -0.38300
N2200       N  0.17347998  0.26711758  0.36996797    -0.40000
C2201       C  0.82685942  0.27160999  0.33019233    -0.04900
C2202       C  0.84422981  0.27382779  0.32282648     0.09200
C2203       C  0.84796589  0.26747430  0.30529676    -0.02300
C2204       C  0.83446988  0.25878706  0.29517756    -0.00600
C2205       C  0.81703009  0.25646619  0.30251405    -0.04200
C2206       C  0.81323993  0.26310240  0.32000566     0.02800
C2207       C  0.85831755  0.28430104  0.33267794     0.09700
C2208       C  0.86572998  0.27019512  0.29760078     0.35600
C2209       C  0.79506901  0.26208873  0.32710975     0.39000
C2210       C  0.87145678  0.27539946  0.34315846    -0.04500
C2211       C  0.88587009  0.28526480  0.35073092     0.02600
C2212       C  0.88722962  0.30404736  0.34769494    -0.04100
C2213       C  0.87392232  0.31289950  0.33730469    -0.00400
C2214       C  0.85942123  0.30309770  0.33005868    -0.02900
C2215       C  0.87002322  0.25612000  0.34618107     0.36300
C2216       C  0.87542787  0.33207263  0.33354295     0.39900
C2217       C  0.89895777  0.27620078  0.36205078     0.39100
C2218       C  0.84561188  0.31232517  0.31975113     0.36000
C2219       C  0.82295591  0.27836508  0.34812802     0.36700
C2220       C  0.83869299  0.25205849  0.27729016     0.39900
N2221       N  0.90937785  0.26897858  0.37112661    -0.38100
N2222       N  0.86880685  0.24073758  0.34860675    -0.39700
N2223       N  0.87669407  0.34734768  0.33053322    -0.37500
N2224       N  0.83451605  0.31965046  0.31161734    -0.39900
N2225       N  0.87992254  0.27248927  0.29158297    -0.39600
N2226       N  0.84210749  0.24677305  0.26300331    -0.37300
N2227       N  0.78050842  0.26140988  0.33262331    -0.38300
N2228       N  0.81980816  0.28372900  0.36244676    -0.40000
C2229       C  0.97739337  0.30865143  0.33988840    -0.04900
C2230       C  0.98924351  0.31194488  0.35440027     0.09200
C2231       C  0.98238689  0.31927298  0.37057692    -0.02300
C2232       C  0.96380329  0.32256133  0.37258863    -0.00600
C2233       C  0.95176012  0.31919314  0.35811448    -0.04200
C2234       C  0.95879993  0.31251483  0.34162113     0.02800
C2235       C  0.00911963  0.30838702  0.35288813     0.09700
C2236       C  0.99465007  0.32384582  0.38512010     0.35600
C2237       C  0.94714260  0.31054307  0.32606506     0.39000
C2238       C  0.02031366  0.32055464  0.34340225    -0.04500
C2239       C  0.03918689  0.31967492  0.34540855     0.02600
C2240       C  0.04696151  0.30695017  0.35723202    -0.04100
C2241       C  0.03593097  0.29390488  0.36560945    -0.00400
C2242       C  0.01707794  0.29444532  0.36321180    -0.02900
C2243       C  0.01238559  0.33460843  0.33235894     0.36300
C2244       C  0.04388034  0.28064143  0.37758716     0.39900
C2245       C  0.05064425  0.33215179  0.33562981     0.39100
C2246       C  0.00574157  0.28120928  0.37210135     0.36000
C2247       C  0.98439114  0.30156971  0.32305705     0.36700
C2248       C  0.95723806  0.32921978  0.38979976     0.39900
N2249       N  0.05979435  0.34199300  0.32768778    -0.38100
N2250       N  0.00605509  0.34579365  0.32350306    -0.39700
N2251       N  0.05022510  0.27012770  0.38722180    -0.37500
N2252       N  0.99668642  0.27065724  0.37919936    -0.39900
N2253       N  0.00450822  0.32752055  0.39661833    -0.39600
N2254       N  0.95208891  0.33463686  0.40350830    -0.37300
N2255       N  0.93783169  0.30913969  0.31363922    -0.38300
N2256       N  0.98995542  0.29604046  0.30956132    -0.40000
C2257       C  0.35166371  0.09758609  0.32723102    -0.04900
C2258       C  0.33347810  0.09643277  0.32203366     0.09200
C2259       C  0.32349886  0.08084060  0.32639546    -0.02300
C2260       C  0.33155512  0.06654793  0.33615833    -0.00600
C2261       C  0.34966222  0.06795490  0.34213004    -0.04200
C2262       C  0.35982551  0.08331502  0.33686946     0.02800
C2263       C  0.32458045  0.11196184  0.31254559     0.09700
C2264       C  0.30460698  0.07998024  0.32154987     0.35600
C2265       C  0.37893549  0.08425204  0.34070309     0.39000
C2266       C  0.32363519  0.11245713  0.29352638    -0.04500
C2267       C  0.31449371  0.12668521  0.28474328     0.02600
C2268       C  0.30685236  0.14092065  0.29489335    -0.04100
C2269       C  0.30799397  0.14049600  0.31392101    -0.00400
C2270       C  0.31661966  0.12595588  0.32269608    -0.02900
C2271       C  0.33185066  0.09817067  0.28300727     0.36300
C2272       C  0.30043378  0.15511030  0.32448777     0.39900
C2273       C  0.31188772  0.12604540  0.26534617     0.39100
C2274       C  0.31704034  0.12513145  0.34223601     0.36000
C2275       C  0.36180223  0.11383502  0.32322273     0.36700
C2276       C  0.32092755  0.05064387  0.34023295     0.39900
N2277       N  0.30952758  0.12547907  0.24992362    -0.38100
N2278       N  0.33843565  0.08682991  0.27454845    -0.39700
N2279       N  0.29441579  0.16678718  0.33291365    -0.37500
N2280       N  0.31734648  0.12427989  0.35782169    -0.39900
N2281       N  0.28950363  0.07953640  0.31779744    -0.39600
N2282       N  0.31238980  0.03791694  0.34320709    -0.37300
N2283       N  0.39421543  0.08502487  0.34357661    -0.38300
N2284       N  0.36980979  0.12689301  0.32021792    -0.40000
C2285       C  0.31868621  0.81677791  0.34180869    -0.04900
C2286       C  0.32129683  0.81694123  0.32296431     0.09200
C2287       C  0.33177317  0.83070846  0.31500353    -0.02300
C2288       C  0.33932085  0.84446865  0.32577434    -0.00600
C2289       C  0.33651379  0.84449128  0.34463104    -0.04200
C2290       C  0.32613061  0.83056226  0.35259407     0.02800
C2291       C  0.31155288  0.80364252  0.31132088     0.09700
C2292       C  0.33494036  0.83052243  0.29569839     0.35600
C2293       C  0.32269671  0.83063950  0.37187754     0.39000
C2294       C  0.29514914  0.80872697  0.30324906    -0.04500
C2295       C  0.28555162  0.79635748  0.29250920     0.02600
C2296       C  0.29226394  0.77869833  0.28978161    -0.04100
C2297       C  0.30891324  0.77372665  0.29756349    -0.00400
C2298       C  0.31848252  0.78614765  0.30838392    -0.02900
C2299       C  0.28822795  0.82683580  0.30597134     0.36300
C2300       C  0.31603025  0.75572297  0.29472036     0.39900
C2301       C  0.26911854  0.80212191  0.28365665     0.39100
C2302       C  0.33545503  0.78095646  0.31648454     0.36000
C2303       C  0.30833450  0.80236405  0.35007592     0.36700
C2304       C  0.35049509  0.85822673  0.31750323     0.39900
N2305       N  0.25606640  0.80677937  0.27654115    -0.38100
N2306       N  0.28288256  0.84133358  0.30817601    -0.39700
N2307       N  0.32166184  0.74135841  0.29234646    -0.37500
N2308       N  0.34899279  0.77674011  0.32292978    -0.39900
N2309       N  0.33748995  0.83028592  0.28029613    -0.39600
N2310       N  0.35942701  0.86922036  0.31094124    -0.37300
N2311       N  0.31991596  0.83072615  0.38724535    -0.38300
N2312       N  0.30019725  0.79077487  0.35665671    -0.40000
C2313       C  0.33834918  0.93624616  0.35592235    -0.04900
C2314       C  0.35455562  0.94591942  0.35825029     0.09200
C2315       C  0.37073740  0.93634845  0.36086116    -0.02300
C2316       C  0.37063191  0.91733977  0.36210934    -0.00600
C2317       C  0.35423826  0.90755627  0.36079765    -0.04200
C2318       C  0.33813432  0.91717198  0.35728833     0.02800
C2319       C  0.35457710  0.96620860  0.35915090     0.09700
C2320       C  0.38756732  0.94615593  0.36247711     0.35600
C2321       C  0.32114766  0.90763888  0.35603257     0.39000
C2322       C  0.34917721  0.97497050  0.37519042    -0.04500
C2323       C  0.35081701  0.99389295  0.37685082     0.02600
C2324       C  0.35769787  0.00430527  0.36239284    -0.04100
C2325       C  0.36264994  0.99558124  0.34616854    -0.00400
C2326       C  0.36120814  0.97661568  0.34460865    -0.02900
C2327       C  0.34242760  0.96439477  0.39023118     0.36300
C2328       C  0.37019349  0.00599589  0.33140690     0.39900
C2329       C  0.34542413  0.00262827  0.39351560     0.39100
C2330       C  0.36718773  0.96770363  0.32826403     0.36000
C2331       C  0.32185241  0.94602393  0.35227423     0.36700
C2332       C  0.38757331  0.90794367  0.36474489     0.39900
N2333       N  0.34116117  0.00954181  0.40684625    -0.38100
N2334       N  0.33702280  0.95593292  0.40219906    -0.39700
N2335       N  0.37623735  0.01435794  0.31967848    -0.37500
N2336       N  0.37214395  0.96058979  0.31528633    -0.39900
N2337       N  0.40098239  0.95400312  0.36359902    -0.39600
N2338       N  0.40106835  0.90048396  0.36699376    -0.37300
N2339       N  0.30754847  0.90009267  0.35506212    -0.38300
N2340       N  0.30872341  0.95386784  0.34929832    -0.40000
C2341       C  0.33001748  0.63880723  0.13352102    -0.04900
C2342       C  0.31106738  0.63817104  0.13325446     0.09200
C2343       C  0.30208325  0.62863153  0.11949050    -0.02300
C2344       C  0.31203268  0.62012224  0.10572366    -0.00600
C2345       C  0.33102276  0.62035845  0.10624792    -0.04200
C2346       C  0.33999592  0.62969715  0.12021263     0.02800
C2347       C  0.30056382  0.64807280  0.14723240     0.09700
C2348       C  0.28261548  0.62734768  0.11972079     0.35600
C2349       C  0.35951774  0.63041662  0.12059047     0.39000
C2350       C  0.29515954  0.66600116  0.14399632    -0.04500
C2351       C  0.28545782  0.67555479  0.15724685     0.02600
C2352       C  0.28116043  0.66719822  0.17390504    -0.04100
C2353       C  0.28683892  0.64924818  0.17715539    -0.00400
C2354       C  0.29641241  0.63969903  0.16379114    -0.02900
C2355       C  0.29965345  0.67457487  0.12695988     0.36300
C2356       C  0.28355444  0.64082623  0.19452636     0.39900
C2357       C  0.27957776  0.69384091  0.15346579     0.39100
C2358       C  0.30212668  0.62126199  0.16704609     0.36000
C2359       C  0.33922871  0.64900006  0.14742291     0.36700
C2360       C  0.30272887  0.61095632  0.09117506     0.39900
N2361       N  0.27496436  0.70843847  0.15039180    -0.38100
N2362       N  0.30330168  0.68132195  0.11335037    -0.39700
N2363       N  0.28104933  0.63413018  0.20841673    -0.37500
N2364       N  0.30671072  0.60655008  0.16956094    -0.39900
N2365       N  0.26709182  0.62617928  0.12002908    -0.39600
N2366       N  0.29532460  0.60378630  0.07947200    -0.37300
N2367       N  0.37508117  0.63088063  0.12084185    -0.38300
N2368       N  0.34661249  0.65717685  0.15845560    -0.40000
C2369       C  0.32788096  0.65551858  0.86734040    -0.04900
C2370       C  0.32256344  0.64423580  0.85302295     0.09200
C2371       C  0.32640249  0.62566471  0.85351189    -0.02300
C2372       C  0.33544799  0.61826161  0.86842810    -0.00600
C2373       C  0.34109874  0.62955280  0.88279004    -0.04200
C2374       C  0.33717472  0.64824039  0.88220234     0.02800
C2375       C  0.31272085  0.65199981  0.83741722     0.09700
C2376       C  0.32124595  0.61424281  0.83848424     0.35600
C2377       C  0.34323221  0.66017995  0.89645848     0.39000
C2378       C  0.32233628  0.66005637  0.82313706    -0.04500
C2379       C  0.31299598  0.66878596  0.80911866     0.02600
C2380       C  0.29397436  0.66868895  0.80896237    -0.04100
C2381       C  0.28439535  0.65979296  0.82289209    -0.00400
C2382       C  0.29378244  0.65178595  0.83726743    -0.02900
C2383       C  0.34184281  0.65931813  0.82297575     0.36300
C2384       C  0.26485151  0.65949861  0.82291117     0.39900
C2385       C  0.32298199  0.67774574  0.79485857     0.39100
C2386       C  0.28398273  0.64375702  0.85220292     0.36000
C2387       C  0.32399895  0.67470128  0.86653389     0.36700
C2388       C  0.33852157  0.59891965  0.86906488     0.39900
N2389       N  0.33100469  0.68496586  0.78357068    -0.38100
N2390       N  0.35739368  0.65854355  0.82289393    -0.39700
N2391       N  0.24928142  0.65916549  0.82287120    -0.37500
N2392       N  0.27617019  0.63745007  0.86416252    -0.39900
N2393       N  0.31722621  0.60515664  0.82645622    -0.39600
N2394       N  0.34102505  0.58351147  0.86955032    -0.37300
N2395       N  0.34801755  0.66979935  0.90777137    -0.38300
N2396       N  0.32090478  0.68998558  0.86572271    -0.40000
C2397       C  0.33399400  0.62117040  0.97461305    -0.04900
C2398       C  0.34912944  0.62334622  0.98585951     0.09200
C2399       C  0.36616804  0.62678109  0.97825284    -0.02300
C2400       C  0.36834955  0.62657885  0.95942137    -0.00600
C2401       C  0.35349767  0.62282570  0.94812739    -0.04200
C2402       C  0.33612903  0.62107337  0.95570626     0.02800
C2403       C  0.34774999  0.61947857  0.00552019     0.09700
C2404       C  0.38166910  0.62932524  0.98986748     0.35600
C2405       C  0.32067149  0.61790137  0.94422093     0.39000
C2406       C  0.34865672  0.60142710  0.01144994    -0.04500
C2407       C  0.34923542  0.59751237  0.02998973     0.02600
C2408       C  0.34878910  0.61167213  0.04277613    -0.04100
C2409       C  0.34711326  0.62975606  0.03678729    -0.00400
C2410       C  0.34677237  0.63362830  0.01815627    -0.02900
C2411       C  0.34935348  0.58686153  0.99837473     0.36300
C2412       C  0.34642556  0.64446576  0.04967302     0.39900
C2413       C  0.35008737  0.57882210  0.03583514     0.39100
C2414       C  0.34588977  0.65216271  0.01191079     0.36000
C2415       C  0.31648482  0.61779647  0.98259707     0.36700
C2416       C  0.38604097  0.62966029  0.95166739     0.39900
N2417       N  0.35084675  0.56393543  0.04050946    -0.38100
N2418       N  0.34984946  0.57527838  0.98792573    -0.39700
N2419       N  0.34577190  0.65621591  0.05992975    -0.37500
N2420       N  0.34527011  0.66694182  0.00689041    -0.39900
N2421       N  0.39401701  0.63129250  0.99915594    -0.39600
N2422       N  0.40013153  0.63202788  0.94543539    -0.37300
N2423       N  0.30828946  0.61542384  0.93509979    -0.38300
N2424       N  0.30258574  0.61496145  0.98905980    -0.40000
C2425       C  0.69004803  0.27296434  0.15890865    -0.04900
C2426       C  0.68504662  0.29090825  0.16266223     0.09200
C2427       C  0.68965766  0.29878463  0.17933188    -0.02300
C2428       C  0.69967762  0.28885981  0.19209098    -0.00600
C2429       C  0.70482724  0.27086747  0.18831176    -0.04200
C2430       C  0.69996100  0.26297977  0.17161267     0.02800
C2431       C  0.67513229  0.30144088  0.14870664     0.09700
C2432       C  0.68387430  0.31701743  0.18340086     0.35600
C2433       C  0.70579418  0.24483801  0.16705836     0.39000
C2434       C  0.65623611  0.30049170  0.14788641    -0.04500
C2435       C  0.64699255  0.30851617  0.13338629     0.02600
C2436       C  0.65661241  0.31781061  0.11973480    -0.04100
C2437       C  0.67552478  0.31929651  0.12095143    -0.00400
C2438       C  0.68474895  0.31113811  0.13544947    -0.02900
C2439       C  0.64632978  0.29133377  0.16207474     0.36300
C2440       C  0.68543775  0.32973045  0.10769649     0.39900
C2441       C  0.62756172  0.30683247  0.13233343     0.39100
C2442       C  0.70412867  0.31287816  0.13697025     0.36000
C2443       C  0.68499326  0.26479741  0.14185586     0.36700
C2444       C  0.70439109  0.29709270  0.20919864     0.39900
N2445       N  0.61206848  0.30555296  0.13145260    -0.38100
N2446       N  0.63841946  0.28416695  0.17347307    -0.39700
N2447       N  0.69339446  0.33809594  0.09718025    -0.37500
N2448       N  0.71956832  0.31430228  0.13838994    -0.39900
N2449       N  0.67917228  0.33152527  0.18672532    -0.39600
N2450       N  0.70823906  0.30365473  0.22282271    -0.37300
N2451       N  0.71046662  0.23039332  0.16341677    -0.38300
N2452       N  0.68090915  0.25829437  0.12827625    -0.40000
C2453       C  0.67788792  0.31348670  0.86743264    -0.04900
C2454       C  0.67757117  0.29449210  0.86627438     0.09200
C2455       C  0.66811957  0.28443194  0.87941978    -0.02300
C2456       C  0.65926459  0.29326412  0.89378882    -0.00600
C2457       C  0.65927927  0.31230842  0.89481675    -0.04200
C2458       C  0.66875639  0.32237449  0.88160097     0.02800
C2459       C  0.68721286  0.28494169  0.85124742     0.09700
C2460       C  0.66697869  0.26496545  0.87776251     0.35600
C2461       C  0.66934017  0.34191677  0.88267871     0.39000
C2462       C  0.70587000  0.28175826  0.85241959    -0.04500
C2463       C  0.71465210  0.27114932  0.83927258     0.02600
C2464       C  0.70500513  0.26436508  0.82418349    -0.04100
C2465       C  0.68639489  0.26830109  0.82269065    -0.00400
C2466       C  0.67757730  0.27845660  0.83620451    -0.02900
C2467       C  0.71609982  0.28961617  0.86711086     0.36300
C2468       C  0.67627872  0.26229039  0.80709157     0.39900
C2469       C  0.73345872  0.26653986  0.84190924     0.39100
C2470       C  0.65857717  0.28257419  0.83452014     0.36000
C2471       C  0.68725859  0.32387512  0.85373909     0.36700
C2472       C  0.64954724  0.28272315  0.90711106     0.39900
N2473       N  0.74841811  0.26278253  0.84407873    -0.38100
N2474       N  0.72433267  0.29612753  0.87863908    -0.39700
N2475       N  0.66817307  0.25749573  0.79466497    -0.37500
N2476       N  0.64343687  0.28595369  0.83319098    -0.39900
N2477       N  0.66586365  0.24946290  0.87626920    -0.39600
N2478       N  0.64184506  0.27433325  0.91779631    -0.37300
N2479       N  0.66981170  0.35750542  0.88351026    -0.38300
N2480       N  0.69470743  0.33212123  0.84276418    -0.40000
C2481       C  0.65874046  0.31907144  0.98624275    -0.04900
C2482       C  0.64316924  0.32045631  0.99706262     0.09200
C2483       C  0.62617037  0.32124041  0.98869572    -0.02300
C2484       C  0.62479447  0.32215727  0.96970705    -0.00600
C2485       C  0.64050906  0.32260675  0.95877855    -0.04200
C2486       C  0.65750177  0.32044723  0.96721583     0.02800
C2487       C  0.64455452  0.32272325  0.01719400     0.09700
C2488       C  0.61004472  0.32122693  0.99975935     0.35600
C2489       C  0.67385627  0.32059495  0.95653325     0.39000
C2490       C  0.64796487  0.34000980  0.02446908    -0.04500
C2491       C  0.64710354  0.34287796  0.04328958     0.02600
C2492       C  0.64271196  0.32851753  0.05504649    -0.04100
C2493       C  0.64007320  0.31104958  0.04785957    -0.00400
C2494       C  0.64092137  0.30818515  0.02899427    -0.02900
C2495       C  0.65167839  0.35504020  0.01247672     0.36300
C2496       C  0.63564150  0.29618968  0.05980709     0.39900
C2497       C  0.65082852  0.36064415  0.05060146     0.39100
C2498       C  0.63739399  0.29042697  0.02162729     0.36000
C2499       C  0.67603438  0.31612169  0.99476348     0.36700
C2500       C  0.60706966  0.32246214  0.96151750     0.39900
N2501       N  0.65386289  0.37478238  0.05647974    -0.38100
N2502       N  0.65458621  0.36702189  0.00288096    -0.39700
N2503       N  0.63210950  0.28436787  0.06939253    -0.37500
N2504       N  0.63447350  0.27628001  0.01571725    -0.39900
N2505       N  0.59726677  0.32104251  0.00869616    -0.39600
N2506       N  0.59290015  0.32270875  0.95506149    -0.37300
N2507       N  0.68690807  0.32074791  0.94799970    -0.38300
N2508       N  0.68980683  0.31348792  0.00153723    -0.40000
C2509       C  0.31821321  0.10267552  0.66083711    -0.04900
C2510       C  0.31531258  0.10276100  0.67963432     0.09200
C2511       C  0.32274627  0.08895493  0.69041443    -0.02300
C2512       C  0.33395595  0.07572383  0.68257624    -0.00600
C2513       C  0.33765340  0.07617826  0.66384405    -0.04200
C2514       C  0.32934780  0.08945497  0.65295318     0.02800
C2515       C  0.30578951  0.11832663  0.68821014     0.09700
C2516       C  0.31893797  0.08851479  0.70960909     0.35600
C2517       C  0.33194523  0.08932146  0.63354744     0.39000
C2518       C  0.28682799  0.11900448  0.68878171    -0.04500
C2519       C  0.27806901  0.13395148  0.69668466     0.02600
C2520       C  0.28828377  0.14838345  0.70386111    -0.04100
C2521       C  0.30721661  0.14798426  0.70255771    -0.00400
C2522       C  0.31594538  0.13283059  0.69515398    -0.02900
C2523       C  0.27638419  0.10420428  0.68144362     0.36300
C2524       C  0.31765430  0.16362462  0.70788954     0.39900
C2525       C  0.25857131  0.13425256  0.69780299     0.39100
C2526       C  0.33544349  0.13206525  0.69475698     0.36000
C2527       C  0.30977437  0.11631057  0.64963501     0.36700
C2528       C  0.34223227  0.06211565  0.69394286     0.39900
N2529       N  0.24302268  0.13454015  0.69867308    -0.38100
N2530       N  0.26804198  0.09241044  0.67556427    -0.39700
N2531       N  0.32590828  0.17626988  0.71178902    -0.37500
N2532       N  0.35099246  0.13129923  0.69456022    -0.39900
N2533       N  0.31580685  0.08813573  0.72490396    -0.39600
N2534       N  0.34882803  0.05126567  0.70302262    -0.37300
N2535       N  0.33404409  0.08914892  0.61807456    -0.38300
N2536       N  0.30291827  0.12713062  0.64072163    -0.40000
C2537       C  0.34590977  0.82426397  0.66826375    -0.04900
C2538       C  0.32734705  0.82620790  0.67142153     0.09200
C2539       C  0.31818357  0.84173940  0.66559339    -0.02300
C2540       C  0.32740444  0.85502341  0.65571068    -0.00600
C2541       C  0.34617387  0.85335830  0.65269895    -0.04200
C2542       C  0.35543114  0.83797388  0.65927311     0.02800
C2543       C  0.31743743  0.81185182  0.68112616     0.09700
C2544       C  0.29934739  0.84418483  0.67019588     0.35600
C2545       C  0.37482645  0.83644432  0.65756155     0.39000
C2546       C  0.31811992  0.81115715  0.70008374    -0.04500
C2547       C  0.30892505  0.79746118  0.70933071     0.02600
C2548       C  0.29921849  0.78429477  0.69955004    -0.04100
C2549       C  0.29886776  0.78478816  0.68053333    -0.00400
C2550       C  0.30774502  0.79878323  0.67132444    -0.02900
C2551       C  0.32824682  0.82460647  0.71003806     0.36300
C2552       C  0.29033636  0.77035856  0.67046932     0.39900
C2553       C  0.30920742  0.79715389  0.72893654     0.39100
C2554       C  0.30704959  0.79974942  0.65178639     0.36000
C2555       C  0.35520809  0.80824015  0.67462077     0.36700
C2556       C  0.31733075  0.87001720  0.64818352     0.39900
N2557       N  0.30944841  0.79680329  0.74454764    -0.38100
N2558       N  0.33637392  0.83528809  0.71797407    -0.39700
N2559       N  0.28377175  0.75869626  0.66245262    -0.37500
N2560       N  0.30646404  0.80065879  0.63621067    -0.39900
N2561       N  0.28440047  0.84617807  0.67410733    -0.39600
N2562       N  0.30922529  0.88190296  0.64213981    -0.37300
N2563       N  0.39029521  0.83513234  0.65632136    -0.38300
N2564       N  0.36251867  0.79545006  0.67977285    -0.40000
C2565       C  0.35201061  0.94278474  0.66306884    -0.04900
C2566       C  0.35138178  0.95508163  0.64854420     0.09200
C2567       C  0.35223659  0.94863776  0.63065025    -0.02300
C2568       C  0.35484990  0.93013341  0.62730265    -0.00600
C2569       C  0.35683454  0.91796050  0.64185609    -0.04200
C2570       C  0.35487968  0.92427200  0.65977104     0.02800
C2571       C  0.35194926  0.97494694  0.65190626     0.09700
C2572       C  0.35093391  0.96115609  0.61564119     0.35600
C2573       C  0.35682516  0.91195574  0.67488437     0.39000
C2574       C  0.36845566  0.98309991  0.65658287    -0.04500
C2575       C  0.36999774  0.00201737  0.65688531     0.02600
C2576       C  0.35510486  0.01292846  0.65230772    -0.04100
C2577       C  0.33820976  0.00478981  0.64901966    -0.00400
C2578       C  0.33666418  0.98579878  0.64878043    -0.02900
C2579       C  0.38407632  0.97199137  0.66040612     0.36300
C2580       C  0.32262355  0.01586186  0.64503654     0.39900
C2581       C  0.38695384  0.01028951  0.66196684     0.39100
C2582       C  0.31954188  0.97736488  0.64468107     0.36000
C2583       C  0.35018185  0.94928794  0.68142739     0.36700
C2584       C  0.35541619  0.92365298  0.60882885     0.39900
N2585       N  0.40042547  0.01695337  0.66605954    -0.38100
N2586       N  0.39650107  0.96310870  0.66350241    -0.39700
N2587       N  0.31016773  0.02470218  0.64193572    -0.37500
N2588       N  0.30591156  0.97059838  0.64135010    -0.39900
N2589       N  0.34980614  0.97111503  0.60366092    -0.39600
N2590       N  0.35589171  0.91847961  0.59410781    -0.37300
N2591       N  0.35840825  0.90208712  0.68689194    -0.38300
N2592       N  0.34871242  0.95440276  0.69610179    -0.40000
C2593       C  0.13722956  0.31988569  0.69641677    -0.04900
C2594       C  0.13887325  0.30120609  0.69327991     0.09200
C2595       C  0.12658555  0.29232652  0.68187235    -0.02300
C2596       C  0.11328783  0.30228784  0.67275003    -0.00600
C2597       C  0.11241371  0.32119875  0.67488524    -0.04200
C2598       C  0.12420166  0.32995348  0.68698655     0.02800
C2599       C  0.15420029  0.29098399  0.70114678     0.09700
C2600       C  0.12787099  0.27295720  0.67936754     0.35600
C2601       C  0.12291177  0.34928960  0.68975203     0.39000
C2602       C  0.15225680  0.28221205  0.71789820    -0.04500
C2603       C  0.16667549  0.27221800  0.72503793     0.02600
C2604       C  0.18301898  0.27093203  0.71539007    -0.04100
C2605       C  0.18496637  0.27964331  0.69861440    -0.00400
C2606       C  0.17053808  0.28968063  0.69148016    -0.02900
C2607       C  0.13537522  0.28337343  0.72766471     0.36300
C2608       C  0.20180858  0.27835077  0.68880655     0.39900
C2609       C  0.16469361  0.26311559  0.74227943     0.39100
C2610       C  0.17238021  0.29858029  0.67413618     0.36000
C2611       C  0.14890618  0.32863852  0.70941090     0.36700
C2612       C  0.10106278  0.29317589  0.66053667     0.39900
N2613       N  0.16317985  0.25581823  0.75600958    -0.38100
N2614       N  0.12189186  0.28426510  0.73543710    -0.39700
N2615       N  0.21525069  0.27732444  0.68097786    -0.37500
N2616       N  0.17375931  0.30568067  0.66029027    -0.39900
N2617       N  0.12894945  0.25749560  0.67748186    -0.39600
N2618       N  0.09130183  0.28591642  0.65079380    -0.37300
N2619       N  0.12193377  0.36471943  0.69194565    -0.38300
N2620       N  0.15810330  0.33552687  0.71994528    -0.40000
C2621       C  0.84859997  0.27559841  0.69823963    -0.04900
C2622       C  0.84675121  0.29412671  0.69441390     0.09200
C2623       C  0.83081828  0.30325347  0.69927502    -0.02300
C2624       C  0.81675852  0.29388725  0.70804510    -0.00600
C2625       C  0.81857534  0.27525357  0.71193014    -0.04200
C2626       C  0.83475057  0.26625665  0.70722937     0.02800
C2627       C  0.86144839  0.30384578  0.68466105     0.09700
C2628       C  0.82876845  0.32219698  0.69477459     0.35600
C2629       C  0.83760917  0.24754737  0.71234818     0.39000
C2630       C  0.86288638  0.30225745  0.66577211    -0.04500
C2631       C  0.87686639  0.31112701  0.65645270     0.02600
C2632       C  0.88973280  0.32141084  0.66604541    -0.04100
C2633       C  0.88824120  0.32298611  0.68501107    -0.00400
C2634       C  0.87408900  0.31427423  0.69427223    -0.02900
C2635       C  0.84998722  0.29129303  0.65599760     0.36300
C2636       C  0.90086332  0.33410996  0.69495252     0.39900
C2637       C  0.87812272  0.30932790  0.63700829     0.39100
C2638       C  0.87248029  0.31603752  0.71369911     0.36000
C2639       C  0.86470085  0.26605048  0.69261286     0.36700
C2640       C  0.80033385  0.30340487  0.71267269     0.39900
N2641       N  0.87894997  0.30786379  0.62148721    -0.38100
N2642       N  0.83969441  0.28241670  0.64836904    -0.39700
N2643       N  0.91092798  0.34301434  0.70285238    -0.37500
N2644       N  0.87116271  0.31749533  0.72918938    -0.39900
N2645       N  0.82718014  0.33728887  0.69107869    -0.39600
N2646       N  0.78726755  0.31105013  0.71638586    -0.37300
N2647       N  0.83986765  0.23266527  0.71652429    -0.38300
N2648       N  0.87742586  0.25836257  0.68793516    -0.40000
C2649       C  0.98165473  0.31722766  0.65834177    -0.04900
C2650       C  0.99226844  0.33293569  0.65997635     0.09200
C2651       C  0.98384876  0.34989974  0.66163960    -0.02300
C2652       C  0.96498349  0.35129514  0.66063667    -0.00600
C2653       C  0.95437044  0.33578256  0.65752985    -0.04200
C2654       C  0.96269897  0.31860641  0.65735498     0.02800
C2655       C  0.01235877  0.33200924  0.65882655     0.09700
C2656       C  0.99471784  0.36604401  0.66361002     0.35600
C2657       C  0.95190560  0.30240308  0.65561058     0.39000
C2658       C  0.02079529  0.33213892  0.64177787    -0.04500
C2659       C  0.03965277  0.33381223  0.64044190     0.02600
C2660       C  0.05028236  0.33537382  0.65622579    -0.04100
C2661       C  0.04179826  0.33456399  0.67334188    -0.00400
C2662       C  0.02291261  0.33286093  0.67459553    -0.02900
C2663       C  0.00993366  0.33102277  0.62556031     0.36300
C2664       C  0.05230630  0.33650461  0.68971059     0.39900
C2665       C  0.04803607  0.33387026  0.62274142     0.39100
C2666       C  0.01421764  0.33252019  0.69211977     0.36000
C2667       C  0.99033543  0.29976378  0.65692760     0.36700
C2668       C  0.95645683  0.36872580  0.66311612     0.39900
N2669       N  0.05469993  0.33401130  0.60861909    -0.38100
N2670       N  0.00121463  0.33010872  0.61266891    -0.39700
N2671       N  0.06069354  0.33807974  0.70276123    -0.37500
N2672       N  0.00727077  0.33227741  0.70609905    -0.39900
N2673       N  0.00346188  0.37887631  0.66510450    -0.39600
N2674       N  0.94969664  0.38262150  0.66527703    -0.37300
N2675       N  0.94332717  0.28942191  0.65442622    -0.38300
N2676       N  0.99731532  0.28586031  0.65568597    -0.40000
C2677       C  0.69716215  0.11948033  0.30745857    -0.04900
C2678       C  0.68009581  0.12299549  0.31495343     0.09200
C2679       C  0.67225339  0.14020637  0.31293278    -0.02300
C2680       C  0.68108384  0.15364629  0.30271367    -0.00600
C2681       C  0.69797245  0.14999405  0.29468077    -0.04200
C2682       C  0.70615727  0.13293851  0.29749191     0.02800
C2683       C  0.67041694  0.10847895  0.32504443     0.09700
C2684       C  0.65529344  0.14414216  0.32179808     0.35600
C2685       C  0.72375083  0.12901203  0.28993033     0.39000
C2686       C  0.67510512  0.10457370  0.34308007    -0.04500
C2687       C  0.66610533  0.09071919  0.35251397     0.02600
C2688       C  0.65265448  0.08052575  0.34379846    -0.04100
C2689       C  0.64805981  0.08432650  0.32574067    -0.00400
C2690       C  0.65683114  0.09836559  0.31641331    -0.02900
C2691       C  0.68926251  0.11479761  0.35182546     0.36300
C2692       C  0.63402621  0.07398471  0.31690260     0.39900
C2693       C  0.67079916  0.08682603  0.37110148     0.39100
C2694       C  0.65185002  0.10243850  0.29794350     0.36000
C2695       C  0.70547993  0.10195529  0.31009888     0.36700
C2696       C  0.67315519  0.17146153  0.30119256     0.39900
N2697       N  0.67458557  0.08375319  0.38592953    -0.49300
N2698       N  0.70065587  0.12294403  0.35865517    -0.39700
N2699       N  0.62282816  0.06566841  0.30995244    -0.37500
N2700       N  0.64776057  0.10568649  0.28323569    -0.39900
N2701       N  0.64182858  0.14720780  0.32902827    -0.39600
N2702       N  0.66685210  0.18569840  0.30008382    -0.37300
N2703       N  0.73784494  0.12589610  0.28405349    -0.38300
N2704       N  0.71210963  0.08800320  0.31233298    -0.40000
C2705       C  0.66517813  0.84197682  0.30683613    -0.04900
C2706       C  0.67374378  0.82880065  0.31756688     0.09200
C2707       C  0.67227900  0.82953314  0.33650647    -0.02300
C2708       C  0.66259801  0.84361487  0.34475132    -0.00600
C2709       C  0.65403367  0.85690542  0.33405007    -0.04200
C2710       C  0.65534809  0.85601469  0.31505182     0.02800
C2711       C  0.68445261  0.81412291  0.30896560     0.09700
C2712       C  0.68041153  0.81547577  0.34745185     0.35600
C2713       C  0.64587277  0.86899732  0.30390750     0.39000
C2714       C  0.70341365  0.81460743  0.30971909    -0.04500
C2715       C  0.71357408  0.80057349  0.30200092     0.02600
C2716       C  0.70481549  0.78639273  0.29276740    -0.04100
C2717       C  0.68582388  0.78595741  0.29197395    -0.00400
C2718       C  0.67567355  0.79957863  0.30042875    -0.02900
C2719       C  0.71246787  0.82968035  0.31829738     0.36300
C2720       C  0.67670430  0.77128197  0.28278904     0.39900
C2721       C  0.73305643  0.80103881  0.30322066     0.39100
C2722       C  0.65618880  0.79850180  0.30062581     0.36000
C2723       C  0.66609249  0.84076333  0.28731963     0.36700
C2724       C  0.66166599  0.84445654  0.36428948     0.39900
N2725       N  0.74857563  0.80138139  0.30438278    -0.38100
N2726       N  0.71970383  0.84168691  0.32513712    -0.39700
N2727       N  0.66951372  0.75958984  0.27537756    -0.37500
N2728       N  0.64064695  0.79760056  0.30085600    -0.39900
N2729       N  0.68689085  0.80417914  0.35605726    -0.39600
N2730       N  0.66099935  0.84498318  0.37987912    -0.37300
N2731       N  0.63826127  0.87931150  0.29501020    -0.38300
N2732       N  0.66666762  0.83961712  0.27175893    -0.40000
C2733       C  0.65541342  0.94772466  0.34752790    -0.04900
C2734       C  0.64015986  0.95872414  0.34489764     0.09200
C2735       C  0.62337766  0.95075312  0.34109412    -0.02300
C2736       C  0.62156749  0.93183745  0.34103782    -0.00600
C2737       C  0.63661880  0.92070541  0.34464270    -0.04200
C2738       C  0.65370354  0.92873600  0.34727952     0.02800
C2739       C  0.64108699  0.97859052  0.34822312     0.09700
C2740       C  0.60779191  0.96213057  0.33798225     0.35600
C2741       C  0.66931975  0.91758216  0.35091395     0.39000
C2742       C  0.64427630  0.99075192  0.33395427    -0.04500
C2743       C  0.64297964  0.00955099  0.33690601     0.02600
C2744       C  0.63814748  0.01625615  0.35417951    -0.04100
C2745       C  0.63598762  0.00391263  0.36866270    -0.00400
C2746       C  0.63734881  0.98521432  0.36563182    -0.02900
C2747       C  0.64831844  0.98382690  0.31610770     0.36300
C2748       C  0.63262999  0.01033281  0.38686340     0.39900
C2749       C  0.64609966  0.02177944  0.32193989     0.39100
C2750       C  0.63438727  0.97265129  0.38038145     0.36000
C2751       C  0.67267102  0.95600775  0.35134207     0.36700
C2752       C  0.60407475  0.92387580  0.33753440     0.39900
N2753       N  0.64880775  0.03136889  0.30990577    -0.38100
N2754       N  0.65149271  0.97827804  0.30186581    -0.39700
N2755       N  0.62990387  0.01542807  0.40136757    -0.37500
N2756       N  0.63198249  0.96260385  0.39209999    -0.39900
N2757       N  0.59541815  0.97128401  0.33553749    -0.39600
N2758       N  0.59009065  0.91756652  0.33483751    -0.37300
N2759       N  0.68179093  0.90869278  0.35380760    -0.38300
N2760       N  0.68641650  0.96264733  0.35444382    -0.40000
C2761       C  0.13304002  0.61919061  0.31679488    -0.04900
C2762       C  0.13511773  0.63758312  0.32118737     0.09200
C2763       C  0.12336863  0.64574567  0.33370969    -0.02300
C2764       C  0.10927153  0.63565786  0.34149400    -0.00600
C2765       C  0.10699239  0.61731095  0.33687850    -0.04200
C2766       C  0.11896593  0.60908442  0.32456440     0.02800
C2767       C  0.14857957  0.64879518  0.31129516     0.09700
C2768       C  0.12578866  0.66456917  0.33847175     0.35600
C2769       C  0.11635623  0.59040237  0.31932999     0.39000
C2770       C  0.14399256  0.65608672  0.29435183    -0.04500
C2771       C  0.15646035  0.66674626  0.28478832     0.02600
C2772       C  0.17361691  0.67036710  0.29224382    -0.04100
C2773       C  0.17816335  0.66302929  0.30929729    -0.00400
C2774       C  0.16567767  0.65221543  0.31874720    -0.02900
C2775       C  0.12624557  0.65274986  0.28690543     0.36300
C2776       C  0.19587072  0.66612976  0.31692410     0.39900
C2777       C  0.15130313  0.67441354  0.26752902     0.39100
C2778       C  0.17041600  0.64452080  0.33610105     0.36000
C2779       C  0.14530444  0.61076254  0.30410771     0.36700
C2780       C  0.09729791  0.64408500  0.35445739     0.39900
N2781       N  0.14712385  0.68045883  0.25375567    -0.38100
N2782       N  0.11205242  0.65003556  0.28110829    -0.39700
N2783       N  0.20999944  0.66863084  0.32297729    -0.37500
N2784       N  0.17423873  0.63839335  0.34994247    -0.39900
N2785       N  0.12781862  0.67957081  0.34228628    -0.39600
N2786       N  0.08769631  0.65078570  0.36476790    -0.37300
N2787       N  0.11417721  0.57553113  0.31510691    -0.38300
N2788       N  0.15511538  0.60405283  0.29400411    -0.40000
C2789       C  0.87213631  0.63535312  0.30965986    -0.04900
C2790       C  0.85766210  0.64411240  0.31834637     0.09200
C2791       C  0.85751715  0.64559800  0.33732478    -0.02300
C2792       C  0.87139534  0.63775537  0.34758848    -0.00600
C2793       C  0.88535479  0.62806754  0.33898163    -0.04200
C2794       C  0.88599566  0.62736447  0.31993765     0.02800
C2795       C  0.84307870  0.65275989  0.30745786     0.09700
C2796       C  0.84310592  0.65527370  0.34631270     0.35600
C2797       C  0.90067660  0.61818442  0.31088812     0.39000
C2798       C  0.82900234  0.64232641  0.30013309    -0.04500
C2799       C  0.81496845  0.65071811  0.29036673     0.02600
C2800       C  0.81514321  0.66966997  0.28748914    -0.04100
C2801       C  0.82985278  0.67989128  0.29427350    -0.00400
C2802       C  0.84355133  0.67147902  0.30434923    -0.02900
C2803       C  0.82915153  0.62287696  0.30245001     0.36300
C2804       C  0.83160068  0.69898054  0.29020162     0.39900
C2805       C  0.80029520  0.63972815  0.28364071     0.39100
C2806       C  0.85852359  0.68202549  0.31119623     0.36000
C2807       C  0.87271279  0.63465034  0.29011487     0.36700
C2808       C  0.87166417  0.64017286  0.36703168     0.39900
N2809       N  0.78867755  0.63079082  0.27834909    -0.38100
N2810       N  0.82941417  0.60734844  0.30411805    -0.39700
N2811       N  0.83311511  0.71418081  0.28693297    -0.37500
N2812       N  0.87051041  0.69033805  0.31667073    -0.39900
N2813       N  0.83170026  0.66304114  0.35357323    -0.39600
N2814       N  0.87206768  0.64212183  0.38251756    -0.37300
N2815       N  0.91244187  0.61099091  0.30360874    -0.38300
N2816       N  0.87305459  0.63416029  0.27451383    -0.40000
C2817       C  0.97564090  0.62754538  0.35259566    -0.04900
C2818       C  0.98542053  0.61125855  0.35319185     0.09200
C2819       C  0.97623602  0.59468568  0.35467176    -0.02300
C2820       C  0.95734517  0.59438322  0.35591918    -0.00600
C2821       C  0.94749751  0.61074640  0.35623871    -0.04200
C2822       C  0.95673458  0.62734352  0.35443824     0.02800
C2823       C  0.00550074  0.61138020  0.35291044     0.09700
C2824       C  0.98630379  0.57790362  0.35498265     0.35600
C2825       C  0.94695166  0.64424994  0.35535640     0.39000
C2826       C  0.01508305  0.61165326  0.36931103    -0.04500
C2827       C  0.03389640  0.60944762  0.36930063     0.02600
C2828       C  0.04321649  0.60677839  0.35287954    -0.04100
C2829       C  0.03373034  0.60756988  0.33638740    -0.00400
C2830       C  0.01486638  0.60976565  0.33643231    -0.02900
C2831       C  0.00546329  0.61354389  0.38624947     0.36300
C2832       C  0.04320094  0.60519890  0.31944114     0.39900
C2833       C  0.04369326  0.60991793  0.38622706     0.39100
C2834       C  0.00492071  0.60960143  0.31961510     0.36000
C2835       C  0.98509419  0.64447964  0.35010219     0.36700
C2836       C  0.94807712  0.57713540  0.35648265     0.39900
N2837       N  0.05156568  0.61030604  0.39968360    -0.38100
N2838       N  0.99778697  0.61498948  0.39976447    -0.39700
N2839       N  0.05075284  0.60334088  0.30590609    -0.37500
N2840       N  0.99686753  0.60942369  0.30626458    -0.39900
N2841       N  0.99433225  0.56452704  0.35524171    -0.39600
N2842       N  0.94068830  0.56339123  0.35691121    -0.37300
N2843       N  0.93916632  0.65774820  0.35619029    -0.38300
N2844       N  0.99264205  0.65796913  0.34793192    -0.40000
C2845       C  0.68156838  0.67415470  0.14953785    -0.04900
C2846       C  0.68285386  0.65520400  0.14999674     0.09200
C2847       C  0.69127473  0.64650237  0.16464882    -0.02300
C2848       C  0.69887673  0.65679462  0.17863272    -0.00600
C2849       C  0.69818349  0.67583116  0.17788842    -0.04200
C2850       C  0.68918537  0.68449282  0.16347609     0.02800
C2851       C  0.67461117  0.64427301  0.13538763     0.09700
C2852       C  0.69198396  0.62694589  0.16534355     0.35600
C2853       C  0.68816945  0.70403958  0.16265625     0.39000
C2854       C  0.68464801  0.63981032  0.11991406    -0.04500
C2855       C  0.67707940  0.62863839  0.10655309     0.02600
C2856       C  0.65941426  0.62166630  0.10878970    -0.04100
C2857       C  0.64916813  0.62693920  0.12408940    -0.00400
C2858       C  0.65674383  0.63833716  0.13719841    -0.02900
C2859       C  0.70272055  0.64692353  0.11772086     0.36300
C2860       C  0.63058640  0.62128498  0.12621890     0.39900
C2861       C  0.68768734  0.62427465  0.09069134     0.39100
C2862       C  0.64604682  0.64442225  0.15242635     0.36000
C2863       C  0.67239968  0.68295703  0.13467149     0.36700
C2864       C  0.70684283  0.64779770  0.19408958     0.39900
N2865       N  0.69613186  0.62101598  0.07797284    -0.38100
N2866       N  0.71708272  0.65270469  0.11595487    -0.39700
N2867       N  0.61578350  0.61677517  0.12803292    -0.37500
N2868       N  0.63756723  0.64952041  0.16449218    -0.39900
N2869       N  0.69250445  0.61134734  0.16590257    -0.39600
N2870       N  0.71308619  0.64065629  0.20648478    -0.37300
N2871       N  0.68729006  0.71962071  0.16202030    -0.38300
N2872       N  0.66504915  0.68994038  0.12281483    -0.40000
C2873       C  0.68492447  0.62831198  0.86789088    -0.04900
C2874       C  0.67708420  0.64251830  0.85788857     0.09200
C2875       C  0.65924306  0.64791774  0.86173260    -0.02300
C2876       C  0.64947865  0.63945741  0.87571224    -0.00600
C2877       C  0.65731076  0.62524319  0.88561978    -0.04200
C2878       C  0.67497624  0.61956279  0.88158105     0.02800
C2879       C  0.68765120  0.65212772  0.84352968     0.09700
C2880       C  0.65087677  0.66206705  0.85112912     0.35600
C2881       C  0.68273306  0.60442171  0.89124626     0.39000
C2882       C  0.69062423  0.64397432  0.82657622    -0.04500
C2883       C  0.69999598  0.65338069  0.81288598     0.02600
C2884       C  0.70639054  0.67110040  0.81599310    -0.04100
C2885       C  0.70309752  0.67934036  0.83292193    -0.00400
C2886       C  0.69418140  0.66971518  0.84673119    -0.02900
C2887       C  0.68406399  0.62584629  0.82325689     0.36300
C2888       C  0.70907071  0.69766512  0.83633545     0.39900
C2889       C  0.70233721  0.64509214  0.79531749     0.39100
C2890       C  0.69216150  0.67768915  0.86449460     0.36000
C2891       C  0.70322845  0.62271064  0.86408955     0.36700
C2892       C  0.63143108  0.64550662  0.88009350     0.39900
N2893       N  0.70412438  0.63854211  0.78126098    -0.38100
N2894       N  0.67895016  0.61132417  0.82068713    -0.39700
N2895       N  0.71363560  0.71235014  0.83902660    -0.37500
N2896       N  0.69066266  0.68392666  0.87872526    -0.39900
N2897       N  0.64422414  0.67333297  0.84261958    -0.39600
N2898       N  0.61707014  0.65035052  0.88370403    -0.37300
N2899       N  0.68883439  0.59225376  0.89888806    -0.38300
N2900       N  0.71781554  0.61818802  0.86102047    -0.40000
C2901       C  0.66216844  0.61635847  0.97651992    -0.04900
C2902       C  0.64691988  0.61607073  0.98785692     0.09200
C2903       C  0.62955530  0.61615984  0.98026198    -0.02300
C2904       C  0.62740855  0.61567094  0.96140769    -0.00600
C2905       C  0.64266046  0.61446973  0.94996746    -0.04200
C2906       C  0.66008912  0.61530249  0.95761693     0.02800
C2907       C  0.64893150  0.61317781  0.00769073     0.09700
C2908       C  0.61386707  0.61577752  0.99195407     0.35600
C2909       C  0.67592390  0.61374541  0.94628147     0.39000
C2910       C  0.64590997  0.62740407  0.01995098    -0.04500
C2911       C  0.64551758  0.62392256  0.03866290     0.02600
C2912       C  0.64805127  0.60612543  0.04516126    -0.04100
C2913       C  0.65153598  0.59200962  0.03283562    -0.00400
C2914       C  0.65200467  0.59554799  0.01418815    -0.02900
C2915       C  0.64243364  0.64546081  0.01324108     0.36300
C2916       C  0.65449732  0.57374930  0.03928082     0.39900
C2917       C  0.64138321  0.63847918  0.05108474     0.39100
C2918       C  0.65490691  0.58087905  0.00155052     0.36000
C2919       C  0.68000510  0.61693029  0.98441960     0.36700
C2920       C  0.60939566  0.61617309  0.95386328     0.39900
N2921       N  0.63806193  0.65004090  0.06103514    -0.38100
N2922       N  0.63951408  0.65985576  0.00793278    -0.39700
N2923       N  0.65675452  0.55916411  0.04439366    -0.37500
N2924       N  0.65719132  0.56925250  0.99139191    -0.39900
N2925       N  0.60143817  0.61539890  0.00136818    -0.39600
N2926       N  0.59501810  0.61652723  0.94789415    -0.37300
N2927       N  0.68863718  0.61243041  0.93735145    -0.38300
N2928       N  0.69422988  0.61739139  0.99073433    -0.40000
C2929       C  0.13840538  0.65088947  0.64848444    -0.04900
C2930       C  0.13873160  0.65020947  0.66747439     0.09200
C2931       C  0.12537144  0.64046345  0.67687170    -0.02300
C2932       C  0.11201088  0.63095223  0.66727397    -0.00600
C2933       C  0.11230380  0.63071682  0.64817772    -0.04200
C2934       C  0.12537818  0.64102218  0.63884688     0.02800
C2935       C  0.15298758  0.66006517  0.67765595     0.09700
C2936       C  0.12549137  0.64024334  0.69645701     0.35600
C2937       C  0.12505137  0.64203192  0.61929992     0.39000
C2938       C  0.14887947  0.67658728  0.68615361    -0.04500
C2939       C  0.16206003  0.68552271  0.69641326     0.02600
C2940       C  0.17963502  0.67844738  0.69742268    -0.04100
C2941       C  0.18387606  0.66208249  0.68875459    -0.00400
C2942       C  0.17051182  0.65279292  0.67900186    -0.02900
C2943       C  0.13121097  0.68458450  0.68393147     0.36300
C2944       C  0.20205099  0.65499558  0.68971300     0.39900
C2945       C  0.15744682  0.70177120  0.70629444     0.39100
C2946       C  0.17481660  0.63586817  0.67020052     0.36000
C2947       C  0.15126329  0.66211522  0.63891882     0.36700
C2948       C  0.09819592  0.62124637  0.67713867     0.39900
N2949       N  0.15368630  0.71458112  0.71437836    -0.38100
N2950       N  0.11715509  0.69100907  0.68199774    -0.39700
N2951       N  0.21658886  0.64946056  0.69050947    -0.37500
N2952       N  0.17830945  0.62239881  0.66312924    -0.39900
N2953       N  0.12570703  0.64024221  0.71207055    -0.39600
N2954       N  0.08715564  0.61369854  0.68518171    -0.37300
N2955       N  0.12474647  0.64283950  0.60371060    -0.38300
N2956       N  0.16146068  0.67118817  0.63135054    -0.40000
C2957       C  0.87379609  0.66010294  0.65943483    -0.04900
C2958       C  0.86520769  0.65100065  0.67379209     0.09200
C2959       C  0.87043633  0.63326985  0.67831158    -0.02300
C2960       C  0.88377655  0.62442979  0.66809552    -0.00600
C2961       C  0.89201565  0.63334436  0.65341392    -0.04200
C2962       C  0.88727069  0.65131979  0.64931743     0.02800
C2963       C  0.84964013  0.65956286  0.68320193     0.09700
C2964       C  0.86160163  0.62394396  0.69308291     0.35600
C2965       C  0.89560838  0.66044749  0.63414268     0.39000
C2966       C  0.83196576  0.65580437  0.67734416    -0.04500
C2967       C  0.81718824  0.66446892  0.68553050     0.02600
C2968       C  0.81998996  0.67612462  0.70027532    -0.04100
C2969       C  0.83765495  0.67944064  0.70651677    -0.00400
C2970       C  0.85248128  0.67151739  0.69770348    -0.02900
C2971       C  0.82906809  0.64286375  0.66297084     0.36300
C2972       C  0.84057094  0.69133141  0.72180025     0.39900
C2973       C  0.79912415  0.66124558  0.67892194     0.39100
C2974       C  0.87064779  0.67583033  0.70337610     0.36000
C2975       C  0.86814884  0.67820937  0.65460626     0.36700
C2976       C  0.88888838  0.60605788  0.67251602     0.39900
N2977       N  0.78472826  0.65871789  0.67355797    -0.38100
N2978       N  0.82691217  0.63235836  0.65163696    -0.39700
N2979       N  0.84275659  0.70073474  0.73406334    -0.37500
N2980       N  0.88512504  0.67942765  0.70784164    -0.39900
N2981       N  0.85446119  0.61651018  0.70481634    -0.39600
N2982       N  0.89298877  0.59139391  0.67597563    -0.37300
N2983       N  0.90221956  0.66772182  0.62200504    -0.38300
N2984       N  0.86352251  0.69261561  0.65075258    -0.40000
C2985       C  0.98244132  0.62206833  0.61585823    -0.04900
C2986       C  0.99181130  0.62117621  0.63236738     0.09200
C2987       C  0.98212517  0.62119286  0.64875189    -0.02300
C2988       C  0.96312946  0.62090233  0.64863279    -0.00600
C2989       C  0.95372333  0.62036752  0.63204938    -0.04200
C2990       C  0.96347086  0.62172046  0.61569153     0.02800
C2991       C  0.01185461  0.61915155  0.63251001     0.09700
C2992       C  0.99181727  0.62109462  0.66572750     0.35600
C2993       C  0.95395411  0.62312101  0.59866086     0.39000
C2994       C  0.02312926  0.63428825  0.63011222    -0.04500
C2995       C  0.04201084  0.63217122  0.63001835     0.02600
C2996       C  0.04969895  0.61486049  0.63223252    -0.04100
C2997       C  0.03839252  0.59983565  0.63529362    -0.00400
C2998       C  0.01954245  0.60193476  0.63516699    -0.02900
C2999       C  0.01524219  0.65197878  0.62742846     0.36300
C3000       C  0.04616989  0.58231282  0.63924489     0.39900
C3001       C  0.05349668  0.64774884  0.62719750     0.39100
C3002       C  0.00798085  0.58631348  0.63743749     0.36000
C3003       C  0.99235556  0.62302961  0.59901736     0.36700
C3004       C  0.95339244  0.62052790  0.66559841     0.39900
N3005       N  0.06271978  0.66015207  0.62504340    -0.38100
N3006       N  0.00890960  0.66606752  0.62519120    -0.39700
N3007       N  0.05236158  0.56838347  0.64261113    -0.37500
N3008       N  0.99869990  0.57388995  0.63917722    -0.39900
N3009       N  0.99965271  0.62098877  0.67920923    -0.39600
N3010       N  0.94566287  0.62037784  0.67916331    -0.37300
N3011       N  0.94631015  0.62433154  0.58511953    -0.38300
N3012       N  0.00025494  0.62390232  0.58558022    -0.40000
C3013       C  0.68099869  0.09303986  0.68695415    -0.04900
C3014       C  0.68706626  0.10872441  0.67804478     0.09200
C3015       C  0.68494997  0.11025916  0.65921322    -0.02300
C3016       C  0.67606362  0.09657517  0.64940708    -0.00600
C3017       C  0.66946473  0.08097771  0.65834251    -0.04200
C3018       C  0.67238822  0.07914466  0.67716539     0.02800
C3019       C  0.69626736  0.12347561  0.68834839     0.09700
C3020       C  0.69230570  0.12585434  0.64991962     0.35600
C3021       C  0.66624400  0.06315796  0.68665758     0.39000
C3022       C  0.71515512  0.12334112  0.69015369    -0.04500
C3023       C  0.72399912  0.13761712  0.69907106     0.02600
C3024       C  0.71396536  0.15206356  0.70644970    -0.04100
C3025       C  0.69506275  0.15221488  0.70461948    -0.00400
C3026       C  0.68624520  0.13799712  0.69552602    -0.02900
C3027       C  0.72548135  0.10857531  0.68255701     0.36300
C3028       C  0.68482135  0.16750785  0.71122914     0.39900
C3029       C  0.74345257  0.13735001  0.70074472     0.39100
C3030       C  0.66690326  0.13853933  0.69311037     0.36000
C3031       C  0.68370565  0.09119890  0.70624408     0.36700
C3032       C  0.67430338  0.09838140  0.62999809     0.39900
N3033       N  0.75897271  0.13718480  0.70199551    -0.38100
N3034       N  0.73365285  0.09678303  0.67642884    -0.39700
N3035       N  0.67677329  0.17984113  0.71638479    -0.37500
N3036       N  0.65147296  0.13908011  0.69111870    -0.39900
N3037       N  0.69836690  0.13826492  0.64262536    -0.39600
N3038       N  0.67294101  0.09990656  0.61451819    -0.37300
N3039       N  0.66147082  0.05032575  0.69418380    -0.38300
N3040       N  0.68588030  0.08969604  0.72162972    -0.40000
C3041       C  0.68464958  0.83060178  0.64987072    -0.04900
C3042       C  0.67968429  0.82619880  0.66770093     0.09200
C3043       C  0.66641369  0.83645385  0.67666022    -0.02300
C3044       C  0.65820005  0.85116973  0.66787978    -0.00600
C3045       C  0.66330294  0.85574099  0.65011810    -0.04200
C3046       C  0.67636023  0.84526237  0.64103076     0.02800
C3047       C  0.68910053  0.81145832  0.67764948     0.09700
C3048       C  0.66125362  0.83177595  0.69496367     0.35600
C3049       C  0.68123867  0.84958377  0.62256310     0.39000
C3050       C  0.70454741  0.81558990  0.68781661    -0.04500
C3051       C  0.71222686  0.80245887  0.69916054     0.02600
C3052       C  0.70452257  0.78502217  0.70032823    -0.04100
C3053       C  0.68957570  0.78062729  0.68944575    -0.00400
C3054       C  0.68191337  0.79383418  0.67806096    -0.02900
C3055       C  0.71242863  0.83347568  0.68665041     0.36300
C3056       C  0.68245840  0.76240768  0.68954834     0.39900
C3057       C  0.72776438  0.80713953  0.71004497     0.39100
C3058       C  0.66676698  0.78931536  0.66662115     0.36000
C3059       C  0.69836460  0.82010690  0.64072663     0.36700
C3060       C  0.64394090  0.86106563  0.67684428     0.39900
N3061       N  0.74015601  0.81092803  0.71869004    -0.38100
N3062       N  0.71869983  0.84773223  0.68558460    -0.39700
N3063       N  0.67684286  0.74784005  0.68957224    -0.37500
N3064       N  0.65476961  0.78568550  0.65737235    -0.39900
N3065       N  0.65722843  0.82793166  0.70955696    -0.39600
N3066       N  0.63244804  0.86876271  0.68403817    -0.37300
N3067       N  0.68503516  0.85302674  0.60780805    -0.38300
N3068       N  0.70933988  0.81174731  0.63345558    -0.40000
C3069       C  0.65451520  0.95170557  0.62668442    -0.04900
C3070       C  0.65472604  0.95862306  0.64439518     0.09200
C3071       C  0.65383435  0.94661637  0.65915169    -0.02300
C3072       C  0.65221346  0.92780664  0.65621916    -0.00600
C3073       C  0.65159657  0.92082151  0.63840808    -0.04200
C3074       C  0.65335640  0.93295780  0.62369550     0.02800
C3075       C  0.65497004  0.97867919  0.64721992     0.09700
C3076       C  0.65409269  0.95375075  0.67736994     0.35600
C3077       C  0.65445085  0.92627356  0.60533731     0.39000
C3078       C  0.63887182  0.98779477  0.65157429    -0.04500
C3079       C  0.63822249  0.00679705  0.65113410     0.02600
C3080       C  0.65367815  0.01687516  0.64634199    -0.04100
C3081       C  0.67009794  0.00781950  0.64319611    -0.00400
C3082       C  0.67073280  0.98875967  0.64363421    -0.02900
C3083       C  0.62272366  0.97759070  0.65572130     0.36300
C3084       C  0.68601381  0.01801185  0.63823539     0.39900
C3085       C  0.62144636  0.01599860  0.65516501     0.39100
C3086       C  0.68740486  0.97944446  0.63956861     0.36000
C3087       C  0.65491993  0.96401728  0.61143297     0.36700
C3088       C  0.65055284  0.91588919  0.67164041     0.39900
N3089       N  0.60808042  0.02339479  0.65825256    -0.38100
N3090       N  0.60985361  0.96946809  0.65910856    -0.39700
N3091       N  0.69868271  0.02617019  0.63421989    -0.37500
N3092       N  0.70067444  0.97199019  0.63622304    -0.39900
N3093       N  0.65417400  0.95954248  0.69186460    -0.39600
N3094       N  0.64932499  0.90662961  0.68415861    -0.37300
N3095       N  0.65540347  0.92114941  0.59062823    -0.38300
N3096       N  0.65518302  0.97387622  0.59931716    -0.40000
C3097       C  0.92898101  0.90388617  0.40852939    -0.04900
C3098       C  0.92045446  0.89811584  0.39254567     0.09200
C3099       C  0.92615716  0.90485755  0.37569057    -0.02300
C3100       C  0.93999741  0.91780757  0.37486264    -0.00600
C3101       C  0.94812819  0.92399536  0.39089815    -0.04200
C3102       C  0.94289102  0.91672613  0.40769468     0.02800
C3103       C  0.90582197  0.88443697  0.39356342     0.09700
C3104       C  0.91809485  0.89807681  0.35923582     0.35600
C3105       C  0.95219574  0.92213448  0.42401412     0.39000
C3106       C  0.88769884  0.88999681  0.39459516    -0.04500
C3107       C  0.87401484  0.87710049  0.39724211     0.02600
C3108       C  0.87850969  0.85871339  0.39912247    -0.04100
C3109       C  0.89655198  0.85309280  0.39732814    -0.00400
C3110       C  0.91019736  0.86595260  0.39449198    -0.02900
C3111       C  0.88325977  0.90902136  0.39345332     0.36300
C3112       C  0.90113516  0.83413864  0.39896284     0.39900
C3113       C  0.85533943  0.88270481  0.39812476     0.39100
C3114       C  0.92882530  0.86029186  0.39303333     0.36000
C3115       C  0.92364219  0.89630058  0.42577482     0.36700
C3116       C  0.94641570  0.92425374  0.35752979     0.39900
N3117       N  0.84042405  0.88714972  0.39870057    -0.38100
N3118       N  0.87978800  0.92422012  0.39257904    -0.39700
N3119       N  0.90483379  0.81902861  0.40029423    -0.37500
N3120       N  0.94371437  0.85587020  0.39188920    -0.39900
N3121       N  0.91172214  0.89256381  0.34611358    -0.39600
N3122       N  0.95173650  0.92925119  0.34372161    -0.37300
N3123       N  0.95975258  0.92639615  0.43696985    -0.38300
N3124       N  0.91941427  0.89013440  0.43948989    -0.40000
C3125       C  0.05610340  0.89603808  0.41062418    -0.04900
C3126       C  0.06633974  0.89082783  0.39543606     0.09200
C3127       C  0.06367304  0.89956490  0.37872093    -0.02300
C3128       C  0.05104260  0.91366638  0.37728070    -0.00600
C3129       C  0.04098958  0.91900961  0.39250999    -0.04200
C3130       C  0.04340746  0.91006631  0.40914906     0.02800
C3131       C  0.08016458  0.87631210  0.39721741     0.09700
C3132       C  0.07384152  0.89393168  0.36300162     0.35600
C3133       C  0.03285033  0.91535946  0.42474033     0.39000
C3134       C  0.07484700  0.85804339  0.39821881    -0.04500
C3135       C  0.08780884  0.84447677  0.40114865     0.02600
C3136       C  0.10610132  0.84914612  0.40302829    -0.04100
C3137       C  0.11147108  0.86734836  0.40172104    -0.00400
C3138       C  0.09852210  0.88092416  0.39884741    -0.02900
C3139       C  0.05595142  0.85333202  0.39691354     0.36300
C3140       C  0.13026679  0.87213041  0.40395550     0.39900
C3141       C  0.08227827  0.82578253  0.40290458     0.39100
C3142       C  0.10395953  0.89971780  0.39832887     0.36000
C3143       C  0.05870793  0.88694959  0.42777093     0.36700
C3144       C  0.04818707  0.92261825  0.36011486     0.39900
N3145       N  0.07787409  0.81087259  0.40437199    -0.38100
N3146       N  0.04084226  0.84966279  0.39604758    -0.39700
N3147       N  0.14526290  0.87590165  0.40579479    -0.37500
N3148       N  0.10826230  0.91472283  0.39796306    -0.39900
N3149       N  0.08195128  0.88943742  0.35044949    -0.39600
N3150       N  0.04579021  0.92981134  0.34646384    -0.37300
N3151       N  0.02440985  0.91953990  0.43718313    -0.38300
N3152       N  0.06077790  0.87957533  0.44138130    -0.40000
C3153       C  0.93987236  0.04174692  0.41248918    -0.04900
C3154       C  0.92821281  0.04629555  0.39820610     0.09200
C3155       C  0.92952927  0.03727561  0.38152608    -0.02300
C3156       C  0.94198590  0.02313627  0.37938231    -0.00600
C3157       C  0.95328868  0.01819665  0.39383731    -0.04200
C3158       C  0.95255430  0.02784193  0.41024692     0.02800
C3159       C  0.91424247  0.06036379  0.40101392     0.09700
C3160       C  0.91818596  0.04271409  0.36657847     0.35600
C3161       C  0.96499395  0.02361237  0.42470777     0.39000
C3162       C  0.91869342  0.07876595  0.39912076    -0.04500
C3163       C  0.90583804  0.09207478  0.40321708     0.02600
C3164       C  0.88852137  0.08694511  0.40902608    -0.04100
C3165       C  0.88386318  0.06855676  0.41035150    -0.00400
C3166       C  0.89676026  0.05524768  0.40640025    -0.02900
C3167       C  0.93646174  0.08392644  0.39288082     0.36300
C3168       C  0.86574137  0.06338020  0.41551577     0.39900
C3169       C  0.91039595  0.11104613  0.40158914     0.39100
C3170       C  0.89211762  0.03628620  0.40786213     0.36000
C3171       C  0.93870690  0.05139470  0.42948393     0.36700
C3172       C  0.94346365  0.01384325  0.36224131     0.39900
N3173       N  0.91393877  0.12620340  0.40033317    -0.38100
N3174       N  0.95062436  0.08801096  0.38781992    -0.39700
N3175       N  0.85126048  0.05928022  0.41955944    -0.37500
N3176       N  0.88846041  0.02114322  0.40894715    -0.39900
N3177       N  0.90919358  0.04715432  0.35463896    -0.39600
N3178       N  0.94475409  0.00641272  0.34857767    -0.37300
N3179       N  0.97502744  0.02042244  0.43620334    -0.38300
N3180       N  0.93768446  0.05918337  0.44297282    -0.40000
C3181       C  0.05974721  0.03413794  0.41418195    -0.04900
C3182       C  0.07153477  0.03936488  0.40021170     0.09200
C3183       C  0.06997746  0.03166700  0.38289949    -0.02300
C3184       C  0.05678343  0.01848859  0.37960545    -0.00600
C3185       C  0.04497570  0.01329577  0.39355974    -0.04200
C3186       C  0.04631186  0.02126097  0.41079231     0.02800
C3187       C  0.08650916  0.05200839  0.40408557     0.09700
C3188       C  0.08224824  0.03710008  0.36866606     0.35600
C3189       C  0.03394576  0.01600875  0.42503973     0.39000
C3190       C  0.10342397  0.04501940  0.40901780    -0.04500
C3191       C  0.11758918  0.05683100  0.41324098     0.02600
C3192       C  0.11494059  0.07564808  0.41212639    -0.04100
C3193       C  0.09822096  0.08262784  0.40642331    -0.00400
C3194       C  0.08391609  0.07078557  0.40259283    -0.02900
C3195       C  0.10625268  0.02563889  0.40931934     0.36300
C3196       C  0.09574258  0.10195386  0.40456526     0.39900
C3197       C  0.13502694  0.04959985  0.41819474     0.39100
C3198       C  0.06660125  0.07781589  0.39694112     0.36000
C3199       C  0.06180108  0.04161914  0.43214144     0.36700
C3200       C  0.05542643  0.01015108  0.36197503     0.39900
N3201       N  0.14892284  0.04371418  0.42203569    -0.38100
N3202       N  0.10836271  0.01016670  0.40929730    -0.39700
N3203       N  0.09379242  0.11736652  0.40297192    -0.37500
N3204       N  0.05277793  0.08337047  0.39239272    -0.39900
N3205       N  0.09213863  0.04151196  0.35742737    -0.39600
N3206       N  0.05441267  0.00345560  0.34791530    -0.37300
N3207       N  0.02400225  0.01180690  0.43631500    -0.38300
N3208       N  0.06347389  0.04745932  0.44651682    -0.40000
C3209       C  0.91757119  0.91304940  0.61728132    -0.04900
C3210       C  0.91718963  0.90221751  0.60166914     0.09200
C3211       C  0.93121196  0.90346182  0.58886995    -0.02300
C3212       C  0.94543640  0.91574627  0.59153473    -0.00600
C3213       C  0.94581741  0.92663811  0.60716491    -0.04200
C3214       C  0.93193712  0.92512298  0.62010658     0.02800
C3215       C  0.90207367  0.88931747  0.59868078     0.09700
C3216       C  0.93093210  0.89208541  0.57295070     0.35600
C3217       C  0.93255653  0.93593580  0.63638783     0.39000
C3218       C  0.88667515  0.89483134  0.58903790    -0.04500
C3219       C  0.87308807  0.88222919  0.58490586     0.02600
C3220       C  0.87478791  0.86411480  0.59060201    -0.04100
C3221       C  0.89001689  0.85873191  0.60064606    -0.00400
C3222       C  0.90353013  0.87137104  0.60483084    -0.02900
C3223       C  0.88488508  0.91348205  0.58337057     0.36300
C3224       C  0.89234588  0.83995023  0.60569408     0.39900
C3225       C  0.85739030  0.88787960  0.57474439     0.39100
C3226       C  0.91906314  0.86591701  0.61532462     0.36000
C3227       C  0.90311046  0.91177709  0.63036592     0.36700
C3228       C  0.95958022  0.91733986  0.57812195     0.39900
N3229       N  0.84489084  0.89234496  0.56658425    -0.38100
N3230       N  0.88344390  0.92839352  0.57895116    -0.39700
N3231       N  0.89418255  0.82492455  0.60954426    -0.37500
N3232       N  0.93141650  0.86162140  0.62378745    -0.39900
N3233       N  0.93068586  0.88296056  0.56029003    -0.39600
N3234       N  0.97088831  0.91859400  0.56744554    -0.37300
N3235       N  0.93313334  0.94458531  0.64936375    -0.38300
N3236       N  0.89151971  0.91076008  0.64075528    -0.40000
C3237       C  0.92813522  0.04150741  0.62145208    -0.04900
C3238       C  0.92738911  0.05049841  0.60467531     0.09200
C3239       C  0.93795125  0.04429358  0.59010774    -0.02300
C3240       C  0.94967181  0.02955678  0.59247700    -0.00600
C3241       C  0.95059689  0.02071155  0.60931501    -0.04200
C3242       C  0.93951540  0.02644568  0.62367814     0.02800
C3243       C  0.91504798  0.06618397  0.60202128     0.09700
C3244       C  0.93651485  0.05294363  0.57260451     0.35600
C3245       C  0.93972636  0.01670603  0.64064888     0.39000
C3246       C  0.92192125  0.08394516  0.60195128    -0.04500
C3247       C  0.91061999  0.09855359  0.59744989     0.02600
C3248       C  0.89226760  0.09550617  0.59371512    -0.04100
C3249       C  0.88518688  0.07786391  0.59480683    -0.00400
C3250       C  0.89661351  0.06319923  0.59867231    -0.02900
C3251       C  0.94058680  0.08713628  0.60663798     0.36300
C3252       C  0.86611387  0.07476312  0.59218683     0.39900
C3253       C  0.91793931  0.11665694  0.59617823     0.39100
C3254       C  0.88947981  0.04497739  0.59903202     0.36000
C3255       C  0.91722033  0.04783209  0.63638773     0.36700
C3256       C  0.96066569  0.02330665  0.57755690     0.39900
N3257       N  0.92374975  0.13110295  0.59502560    -0.38100
N3258       N  0.95544163  0.08967288  0.61055039    -0.39700
N3259       N  0.85090585  0.07204263  0.59027910    -0.37500
N3260       N  0.88383960  0.03042409  0.59936577    -0.39900
N3261       N  0.93526792  0.05983272  0.55864397    -0.39600
N3262       N  0.96942252  0.01824043  0.56567735    -0.37300
N3263       N  0.93977774  0.00882111  0.65413299    -0.38300
N3264       N  0.90848621  0.05292970  0.64827099    -0.40000
C3265       C  0.05382167  0.90042252  0.59426225    -0.04900
C3266       C  0.06554773  0.89622011  0.60860555     0.09200
C3267       C  0.06365885  0.90492514  0.62539563    -0.02300
C3268       C  0.05007324  0.91794038  0.62781458    -0.00600
C3269       C  0.03850929  0.92234171  0.61337829    -0.04200
C3270       C  0.04039960  0.91356621  0.59659384     0.02800
C3271       C  0.07992444  0.88257690  0.60576396     0.09700
C3272       C  0.07582370  0.90058288  0.64004331     0.35600
C3273       C  0.02882465  0.91842325  0.58160239     0.39000
C3274       C  0.09648186  0.88782432  0.59809536    -0.04500
C3275       C  0.10906667  0.87461938  0.59294122     0.02600
C3276       C  0.10516824  0.85619408  0.59566715    -0.04100
C3277       C  0.08910287  0.85102582  0.60443205    -0.00400
C3278       C  0.07645900  0.86424789  0.60945925    -0.02900
C3279       C  0.10055765  0.90681578  0.59568631     0.36300
C3280       C  0.08545990  0.83213489  0.60802535     0.39900
C3281       C  0.12616395  0.87995026  0.58511410     0.39100
C3282       C  0.05985971  0.85911568  0.61841575     0.36000
C3283       C  0.05570609  0.89126481  0.57706374     0.36700
C3284       C  0.04804547  0.92695355  0.64505156     0.39900
N3285       N  0.13985643  0.88411463  0.57893429    -0.38100
N3286       N  0.10384784  0.92198246  0.59394372    -0.39700
N3287       N  0.08249335  0.81708595  0.61097167    -0.37500
N3288       N  0.04663914  0.85518937  0.62569267    -0.39900
N3289       N  0.08557344  0.89709675  0.65169650    -0.39600
N3290       N  0.04639642  0.93418529  0.65878477    -0.37300
N3291       N  0.01960755  0.92232899  0.56964810    -0.38300
N3292       N  0.05724700  0.88390776  0.56338389    -0.40000
C3293       C  0.06835425  0.03192592  0.63076577    -0.04900
C3294       C  0.07321466  0.03910964  0.61382036     0.09200
C3295       C  0.06305459  0.03473350  0.59836237    -0.02300
C3296       C  0.04793955  0.02339946  0.59986883    -0.00600
C3297       C  0.04313657  0.01607086  0.61678093    -0.04200
C3298       C  0.05338934  0.02030267  0.63222668     0.02800
C3299       C  0.08844275  0.05211614  0.61215352     0.09700
C3300       C  0.06829889  0.04182068  0.58087308     0.35600
C3301       C  0.04858578  0.01256324  0.64954252     0.39000
C3302       C  0.10555403  0.04614228  0.60644849    -0.04500
C3303       C  0.11900372  0.05882387  0.60201990     0.02600
C3304       C  0.11543980  0.07744871  0.60364511    -0.04100
C3305       C  0.09867386  0.08336247  0.61033717    -0.00400
C3306       C  0.08519312  0.07070177  0.61457905    -0.02900
C3307       C  0.10917596  0.02697761  0.60493296     0.36300
C3308       C  0.09499106  0.10251538  0.61198818     0.39900
C3309       C  0.13642396  0.05277417  0.59558032     0.39100
C3310       C  0.06775034  0.07675779  0.62094526     0.36000
C3311       C  0.07883938  0.03645390  0.64660585     0.36700
C3312       C  0.03746666  0.01896529  0.58397351     0.39900
N3313       N  0.15033151  0.04800375  0.59041452    -0.38100
N3314       N  0.11210245  0.01167975  0.60383042    -0.39700
N3315       N  0.09207617  0.11780322  0.61323261    -0.37500
N3316       N  0.05381609  0.08148298  0.62607235    -0.39900
N3317       N  0.07260874  0.04742301  0.56694347    -0.39600
N3318       N  0.02906284  0.01539873  0.57133701    -0.37300
N3319       N  0.04475396  0.00635976  0.66335689    -0.38300
N3320       N  0.08724038  0.04011173  0.65921852    -0.40000
C3321       C  0.40035682  0.89512365  0.93767031    -0.04900
C3322       C  0.38785224  0.89386482  0.92342102     0.09200
C3323       C  0.37222225  0.90467463  0.92362380    -0.02300
C3324       C  0.36906924  0.91658550  0.93812770    -0.00600
C3325       C  0.38199229  0.91839858  0.95196034    -0.04200
C3326       C  0.39775033  0.90779456  0.95156024     0.02800
C3327       C  0.39115782  0.88074021  0.90849127     0.09700
C3328       C  0.35957660  0.90373885  0.90878528     0.35600
C3329       C  0.41171939  0.91062913  0.96490484     0.39000
C3330       C  0.38455203  0.86296664  0.90996171    -0.04500
C3331       C  0.38971504  0.84977873  0.89726409     0.02600
C3332       C  0.40131327  0.85440975  0.88286472    -0.04100
C3333       C  0.40679450  0.87253098  0.88065124    -0.00400
C3334       C  0.40204331  0.88559644  0.89364250    -0.02900
C3335       C  0.37285800  0.85821487  0.92491086     0.36300
C3336       C  0.41678811  0.87782252  0.86467128     0.39900
C3337       C  0.38359604  0.83132222  0.89941032     0.39100
C3338       C  0.40870555  0.90392091  0.89198757     0.36000
C3339       C  0.41587820  0.88326919  0.93803964     0.36700
C3340       C  0.35268632  0.92719575  0.93875998     0.39900
N3341       N  0.37869351  0.81659819  0.90113438    -0.38100
N3342       N  0.36350545  0.85460523  0.93687531    -0.39700
N3343       N  0.42452113  0.88202747  0.85177195    -0.37500
N3344       N  0.41413665  0.91850154  0.89066989    -0.39900
N3345       N  0.34951763  0.90313530  0.89689631    -0.39600
N3346       N  0.33961062  0.93565173  0.93936894    -0.37300
N3347       N  0.42297946  0.91311812  0.97537729    -0.38300
N3348       N  0.42812664  0.87363866  0.93838435    -0.40000
C3349       C  0.39595749  0.89279063  0.05865039    -0.04900
C3350       C  0.38347275  0.89184214  0.07295131     0.09200
C3351       C  0.36829159  0.90324333  0.07297882    -0.02300
C3352       C  0.36603703  0.91616017  0.05914754    -0.00600
C3353       C  0.37882081  0.91750073  0.04504618    -0.04200
C3354       C  0.39345157  0.90529208  0.04454708     0.02800
C3355       C  0.38670163  0.87895804  0.08812219     0.09700
C3356       C  0.35510300  0.90169149  0.08732584     0.35600
C3357       C  0.40598631  0.90554900  0.02954247     0.39000
C3358       C  0.39616071  0.88470987  0.10357660    -0.04500
C3359       C  0.40091193  0.87215520  0.11706374     0.02600
C3360       C  0.39671058  0.85370556  0.11485791    -0.04100
C3361       C  0.38689335  0.84803757  0.09956201    -0.00400
C3362       C  0.38165123  0.86070189  0.08638095    -0.02900
C3363       C  0.40147904  0.90346700  0.10525471     0.36300
C3364       C  0.38308302  0.82902557  0.09685796     0.39900
C3365       C  0.40992948  0.87824499  0.13329891     0.39100
C3366       C  0.37143682  0.85492185  0.07076477     0.36000
C3367       C  0.41166627  0.88115390  0.05876379     0.36700
C3368       C  0.35058941  0.92809820  0.05940463     0.39900
N3369       N  0.41697959  0.88315636  0.14631335    -0.38100
N3370       N  0.40575937  0.91843391  0.10644880    -0.39700
N3371       N  0.38019453  0.81383096  0.09471883    -0.37500
N3372       N  0.36322716  0.85034188  0.05832912    -0.39900
N3373       N  0.34458969  0.90033931  0.09877806    -0.39600
N3374       N  0.33830363  0.93768638  0.05961782    -0.37300
N3375       N  0.41584030  0.90544846  0.01744575    -0.38300
N3376       N  0.42420863  0.87190572  0.05903429    -0.40000
C3377       C  0.37698128  0.02964773  0.92561129    -0.04900
C3378       C  0.39400645  0.03810017  0.92488287     0.09200
C3379       C  0.40709817  0.03385688  0.93800708    -0.02300
C3380       C  0.40337344  0.02094547  0.95149146    -0.00600
C3381       C  0.38643314  0.01236038  0.95212492    -0.04200
C3382       C  0.37317208  0.01687238  0.93925668     0.02800
C3383       C  0.39828225  0.05152971  0.91033310     0.09700
C3384       C  0.42440279  0.04288503  0.93765096     0.35600
C3385       C  0.35559912  0.00841760  0.94015161     0.39000
C3386       C  0.39258173  0.06960477  0.91198670    -0.04500
C3387       C  0.39762560  0.08252378  0.89890742     0.02600
C3388       C  0.40847723  0.07748574  0.88404350    -0.04100
C3389       C  0.41351850  0.05919530  0.88200648    -0.00400
C3390       C  0.40852696  0.04630031  0.89516562    -0.02900
C3391       C  0.38163554  0.07492467  0.92729049     0.36300
C3392       C  0.42303932  0.05338670  0.86596314     0.39900
C3393       C  0.39186448  0.10111112  0.90094952     0.39100
C3394       C  0.41379987  0.02756225  0.89310375     0.36000
C3395       C  0.36343996  0.03407703  0.91226177     0.36700
C3396       C  0.41705531  0.01623935  0.96461791     0.39900
N3397       N  0.38720449  0.11592870  0.90250070    -0.38100
N3398       N  0.37283248  0.07913337  0.93946672    -0.39700
N3399       N  0.43039817  0.04839768  0.85314241    -0.37500
N3400       N  0.41795302  0.01259203  0.89154948    -0.39900
N3401       N  0.43818489  0.05014569  0.93736194    -0.39600
N3402       N  0.42789167  0.01239892  0.97513996    -0.37300
N3403       N  0.34154832  0.00172364  0.94090428    -0.38300
N3404       N  0.35263225  0.03766302  0.90162027    -0.40000
C3405       C  0.40420344  0.03335691  0.05959969    -0.04900
C3406       C  0.39005267  0.03983391  0.07055002     0.09200
C3407       C  0.37264827  0.03236972  0.06874908    -0.02300
C3408       C  0.36941035  0.01863038  0.05594389    -0.00600
C3409       C  0.38357190  0.01227272  0.04495477    -0.04200
C3410       C  0.40095366  0.01969556  0.04680306     0.02800
C3411       C  0.39364763  0.05462830  0.08385540     0.09700
C3412       C  0.35814696  0.03873890  0.08017932     0.35600
C3413       C  0.41549085  0.01321861  0.03544689     0.39000
C3414       C  0.38990918  0.07275384  0.07928654    -0.04500
C3415       C  0.39517110  0.08685358  0.09095147     0.02600
C3416       C  0.40367977  0.08286938  0.10748766    -0.04100
C3417       C  0.40639379  0.06472056  0.11256599    -0.00400
C3418       C  0.40184058  0.05065434  0.10057644    -0.02900
C3419       C  0.38106962  0.07688352  0.06235216     0.36300
C3420       C  0.41362610  0.06054692  0.13024446     0.39900
C3421       C  0.39230011  0.10550451  0.08575432     0.39100
C3422       C  0.40613075  0.03211392  0.10512519     0.36000
C3423       C  0.42217042  0.04071826  0.06159154     0.36700
C3424       C  0.35150892  0.01114579  0.05387446     0.39900
N3425       N  0.39011806  0.12041634  0.08165506    -0.38100
N3426       N  0.37393373  0.08014071  0.04886902    -0.39700
N3427       N  0.41915765  0.05723208  0.14445417    -0.37500
N3428       N  0.40974826  0.01731847  0.10856678    -0.39900
N3429       N  0.34656537  0.04379447  0.08931792    -0.39600
N3430       N  0.33723046  0.00516493  0.05214459    -0.37300
N3431       N  0.42699052  0.00800161  0.02629705    -0.38300
N3432       N  0.43652646  0.04651794  0.06327159    -0.40000
C3433       C  0.94354118  0.36000197  0.93064751    -0.04900
C3434       C  0.93125884  0.37449228  0.93102080     0.09200
C3435       C  0.93270239  0.38782163  0.94454393    -0.02300
C3436       C  0.94646500  0.38672721  0.95757969    -0.00600
C3437       C  0.95885794  0.37228011  0.95714247    -0.04200
C3438       C  0.95730841  0.35889578  0.94365717     0.02800
C3439       C  0.91688502  0.37595220  0.91701019     0.09700
C3440       C  0.91992413  0.40261385  0.94503427     0.35600
C3441       C  0.96987078  0.34392607  0.94324882     0.39000
C3442       C  0.90089265  0.36582258  0.91863237    -0.04500
C3443       C  0.88672671  0.36840383  0.90623062     0.02600
C3444       C  0.88861089  0.38104534  0.89201336    -0.04100
C3445       C  0.90510419  0.39033156  0.88982251    -0.00400
C3446       C  0.91915825  0.38779244  0.90229045    -0.02900
C3447       C  0.89913464  0.35264998  0.93302014     0.36300
C3448       C  0.90789580  0.40202926  0.87434577     0.39900
C3449       C  0.87010634  0.35836915  0.90846587     0.39100
C3450       C  0.93615089  0.39709886  0.89979936     0.36000
C3451       C  0.94194294  0.34622394  0.91686474     0.36700
C3452       C  0.94792145  0.40047547  0.97141744     0.39900
N3453       N  0.85690780  0.35027270  0.91028579    -0.38100
N3454       N  0.89790648  0.34199563  0.94438192    -0.39700
N3455       N  0.91002677  0.41128404  0.86193851    -0.37500
N3456       N  0.94973906  0.40443965  0.89771739    -0.39900
N3457       N  0.90969514  0.41438319  0.94534285    -0.39600
N3458       N  0.94902944  0.41140535  0.98250340    -0.37300
N3459       N  0.97998410  0.33205979  0.94292636    -0.38300
N3460       N  0.94056220  0.33520283  0.90590406    -0.40000
C3461       C  0.06629266  0.35799121  0.92608044    -0.04900
C3462       C  0.07863667  0.37251312  0.92605716     0.09200
C3463       C  0.07786283  0.38546193  0.94004731    -0.02300
C3464       C  0.06480003  0.38401125  0.95379023    -0.00600
C3465       C  0.05244769  0.36953947  0.95379054    -0.04200
C3466       C  0.05338109  0.35640618  0.94001158     0.02800
C3467       C  0.09235505  0.37447536  0.91125233     0.09700
C3468       C  0.09039392  0.40047985  0.94015206     0.35600
C3469       C  0.04116137  0.34114970  0.94033093     0.39000
C3470       C  0.09076359  0.38863182  0.89858272    -0.04500
C3471       C  0.10447125  0.39169277  0.88577079     0.02600
C3472       C  0.12013192  0.38080164  0.88563451    -0.04100
C3473       C  0.12137698  0.36613490  0.89782487    -0.00400
C3474       C  0.10751935  0.36297768  0.91053698    -0.02900
C3475       C  0.07529657  0.40056892  0.89920440     0.36300
C3476       C  0.13739171  0.35494197  0.89813396     0.39900
C3477       C  0.10241606  0.40619070  0.87273816     0.39100
C3478       C  0.10925953  0.34835662  0.92344075     0.36000
C3479       C  0.06668034  0.34485197  0.91160108     0.36700
C3480       C  0.06396278  0.39751101  0.96792527     0.39900
N3481       N  0.10084100  0.41777695  0.86237675    -0.38100
N3482       N  0.06312469  0.41028134  0.89988513    -0.39700
N3483       N  0.15019257  0.34605197  0.89838406    -0.37500
N3484       N  0.11064250  0.33664013  0.93367924    -0.39900
N3485       N  0.10026353  0.41256028  0.94005840    -0.39600
N3486       N  0.06330411  0.40822856  0.97925121    -0.37300
N3487       N  0.03142830  0.32896127  0.94065606    -0.38300
N3488       N  0.06698708  0.33434600  0.90006209    -0.40000
C3489       C  0.94357420  0.34619024  0.07377057    -0.04900
C3490       C  0.93402710  0.36228344  0.07710762     0.09200
C3491       C  0.93835567  0.37808914  0.06740386    -0.02300
C3492       C  0.95185173  0.37769922  0.05406742    -0.00600
C3493       C  0.96119854  0.36152683  0.05040644    -0.04200
C3494       C  0.95709973  0.34576842  0.06037234     0.02800
C3495       C  0.91895618  0.36266415  0.09044527     0.09700
C3496       C  0.92892214  0.39479356  0.07123528     0.35600
C3497       C  0.96655373  0.32908624  0.05663208     0.39000
C3498       C  0.92240880  0.36639341  0.10877720    -0.04500
C3499       C  0.90797102  0.36906992  0.12082784     0.02600
C3500       C  0.89009932  0.36838469  0.11446591    -0.04100
C3501       C  0.88663155  0.36390623  0.09633760    -0.00400
C3502       C  0.90105525  0.36066446  0.08442749    -0.02900
C3503       C  0.94080323  0.36781865  0.11510527     0.36300
C3504       C  0.86825523  0.36340359  0.08979499     0.39900
C3505       C  0.91145573  0.37289616  0.13969792     0.39100
C3506       C  0.89754079  0.35542899  0.06592285     0.36000
C3507       C  0.93939261  0.33014373  0.08417546     0.36700
C3508       C  0.95613753  0.39394887  0.04400875     0.39900
N3509       N  0.91417307  0.37589597  0.15477129    -0.38100
N3510       N  0.95548909  0.36890783  0.12015704    -0.39700
N3511       N  0.85358990  0.36316030  0.08457495    -0.37500
N3512       N  0.89476246  0.35105898  0.05120357    -0.39900
N3513       N  0.92142272  0.40811707  0.07435217    -0.39600
N3514       N  0.95958549  0.40684062  0.03588787    -0.37300
N3515       N  0.97401900  0.31570069  0.05370535    -0.38300
N3516       N  0.93599019  0.31746083  0.09264136    -0.40000
C3517       C  0.07934801  0.37334034  0.06438818    -0.04900
C3518       C  0.08145466  0.35718591  0.07425760     0.09200
C3519       C  0.07124795  0.34183116  0.06969261    -0.02300
C3520       C  0.05808383  0.34295569  0.05609900    -0.00600
C3521       C  0.05527833  0.35938444  0.04687974    -0.04200
C3522       C  0.06622316  0.37446660  0.05074138     0.02800
C3523       C  0.09235702  0.35726100  0.09111222     0.09700
C3524       C  0.07398442  0.32506369  0.07939536     0.35600
C3525       C  0.06341704  0.39135103  0.04123465     0.39000
C3526       C  0.08375629  0.36114290  0.10763970    -0.04500
C3527       C  0.09402680  0.36356902  0.12337938     0.02600
C3528       C  0.11289025  0.36153953  0.12274149    -0.04100
C3529       C  0.12138124  0.35654206  0.10644658    -0.00400
C3530       C  0.11113593  0.35462875  0.09057006    -0.02900
C3531       C  0.06432852  0.36311459  0.10825116     0.36300
C3532       C  0.14077257  0.35435583  0.10585522     0.39900
C3533       C  0.08520069  0.36850007  0.14013423     0.39100
C3534       C  0.11994010  0.35057362  0.07359538     0.36000
C3535       C  0.09029310  0.38895260  0.06875747     0.36700
C3536       C  0.04697267  0.32742174  0.05196826     0.39900
N3537       N  0.07805294  0.37249686  0.15342268    -0.38100
N3538       N  0.04882660  0.36455526  0.10855993    -0.39700
N3539       N  0.15624603  0.35263549  0.10556638    -0.37500
N3540       N  0.12704819  0.34741631  0.06006302    -0.39900
N3541       N  0.07624013  0.31169003  0.08713899    -0.39600
N3542       N  0.03797654  0.31511206  0.04868888    -0.37300
N3543       N  0.06116146  0.40485135  0.03370764    -0.38300
N3544       N  0.09910774  0.40133659  0.07226309    -0.40000
C3545       C  0.59752155  0.90788077  0.93235647    -0.04900
C3546       C  0.61113296  0.89951686  0.92204285     0.09200
C3547       C  0.62938083  0.90337176  0.92555821    -0.02300
C3548       C  0.63401310  0.91576940  0.93918988    -0.00600
C3549       C  0.62038307  0.92422867  0.94940256    -0.04200
C3550       C  0.60214599  0.92020085  0.94602803     0.02800
C3551       C  0.60623113  0.88636220  0.90763802     0.09700
C3552       C  0.64332875  0.89442563  0.91519893     0.35600
C3553       C  0.58818919  0.92887808  0.95662835     0.39000
C3554       C  0.60371887  0.89229420  0.88972523    -0.04500
C3555       C  0.59854658  0.87990553  0.87625050     0.02600
C3556       C  0.59620670  0.86151584  0.88062832    -0.04100
C3557       C  0.59905982  0.85555623  0.89848741    -0.00400
C3558       C  0.60405381  0.86796538  0.91197016    -0.02900
C3559       C  0.60661492  0.91112765  0.88522739     0.36300
C3560       C  0.59677376  0.83663956  0.90297438     0.39900
C3561       C  0.59540179  0.88610769  0.85796771     0.39100
C3562       C  0.60707798  0.86187736  0.93032143     0.36000
C3563       C  0.57876774  0.90375254  0.92892273     0.36700
C3564       C  0.65276510  0.91972997  0.94282062     0.39900
N3565       N  0.59284307  0.89113304  0.84340766    -0.38100
N3566       N  0.60907558  0.92615303  0.88173565    -0.39700
N3567       N  0.59494210  0.82153363  0.90649552    -0.37500
N3568       N  0.60957523  0.85715767  0.94499314    -0.39900
N3569       N  0.65438359  0.88719459  0.90691078    -0.39600
N3570       N  0.66774737  0.92284690  0.94569259    -0.37300
N3571       N  0.57719917  0.93585586  0.96521634    -0.38300
N3572       N  0.56378550  0.90047071  0.92624541    -0.40000
C3573       C  0.63640766  0.04332131  0.93709650    -0.04900
C3574       C  0.61775951  0.04492183  0.93400059     0.09200
C3575       C  0.60562622  0.03362715  0.94334044    -0.02300
C3576       C  0.61220350  0.02009242  0.95497640    -0.00600
C3577       C  0.63094768  0.01758065  0.95699006    -0.04200
C3578       C  0.64300731  0.02960455  0.94848348     0.02800
C3579       C  0.61108462  0.05758041  0.91982812     0.09700
C3580       C  0.58642746  0.03559223  0.94048748     0.35600
C3581       C  0.66224798  0.02725905  0.95066984     0.39000
C3582       C  0.60856790  0.05127927  0.90202953    -0.04500
C3583       C  0.60292111  0.06325471  0.88838773     0.02600
C3584       C  0.60013450  0.08161800  0.89244071    -0.04100
C3585       C  0.60249438  0.08790705  0.91023829    -0.00400
C3586       C  0.60797578  0.07589823  0.92392705    -0.02900
C3587       C  0.61228512  0.03255632  0.89770751     0.36300
C3588       C  0.59933821  0.10676910  0.91439649     0.39900
C3589       C  0.59998815  0.05671868  0.87018505     0.39100
C3590       C  0.61078563  0.08241581  0.94213951     0.36000
C3591       C  0.64880225  0.05540489  0.92797921     0.36700
C3592       C  0.59975777  0.00845813  0.96460125     0.39900
N3593       N  0.59755530  0.05148354  0.85568614    -0.38100
N3594       N  0.61538196  0.01763628  0.89431079    -0.39700
N3595       N  0.59676854  0.12182397  0.91763649    -0.37500
N3596       N  0.61310909  0.08764419  0.95665696    -0.39900
N3597       N  0.57111370  0.03715446  0.93815180    -0.39600
N3598       N  0.58993514  0.99912176  0.97234822    -0.37300
N3599       N  0.67760930  0.02538533  0.95236656    -0.38300
N3600       N  0.65860885  0.06512084  0.92069563    -0.40000
C3601       C  0.59058781  0.91117981  0.06272342    -0.04900
C3602       C  0.60400107  0.90058536  0.07104337     0.09200
C3603       C  0.62209977  0.90229619  0.06554867    -0.02300
C3604       C  0.62677341  0.91449733  0.05173126    -0.00600
C3605       C  0.61334292  0.92490338  0.04319504    -0.04200
C3606       C  0.59521182  0.92315569  0.04866233     0.02800
C3607       C  0.59906335  0.88734205  0.08542726     0.09700
C3608       C  0.63591952  0.89161608  0.07430023     0.35600
C3609       C  0.58140677  0.93394553  0.04002298     0.39000
C3610       C  0.59257182  0.87011137  0.08062585    -0.04500
C3611       C  0.58795557  0.85754647  0.09414843     0.02600
C3612       C  0.59039154  0.86196969  0.11250340    -0.04100
C3613       C  0.59735926  0.87900315  0.11729259    -0.00400
C3614       C  0.60130736  0.89182307  0.10378979    -0.02900
C3615       C  0.59094299  0.86527205  0.06173928     0.36300
C3616       C  0.60037663  0.88332461  0.13612888     0.39900
C3617       C  0.58110638  0.83990414  0.08918110     0.39100
C3618       C  0.60749681  0.90969663  0.10874329     0.36000
C3619       C  0.57213005  0.91005864  0.06899654     0.36700
C3620       C  0.64543711  0.91652239  0.04637037     0.39900
N3621       N  0.57564472  0.82582687  0.08523251    -0.38100
N3622       N  0.58976591  0.86146166  0.04664895    -0.39700
N3623       N  0.60289153  0.88663288  0.15117149    -0.37500
N3624       N  0.61234026  0.92400113  0.11267952    -0.39900
N3625       N  0.64691909  0.88313449  0.08137564    -0.39600
N3626       N  0.66030839  0.91818411  0.04203720    -0.37300
N3627       N  0.57040873  0.94260480  0.03316058    -0.38300
N3628       N  0.55744223  0.90923767  0.07413477    -0.40000
C3629       C  0.60656766  0.03923516  0.04917904    -0.04900
C3630       C  0.61956705  0.04794426  0.05995544     0.09200
C3631       C  0.63774873  0.04264694  0.05888344    -0.02300
C3632       C  0.64273122  0.02785846  0.04803141    -0.00600
C3633       C  0.62951800  0.01834183  0.03819976    -0.04200
C3634       C  0.61146919  0.02427834  0.03851629     0.02800
C3635       C  0.61381647  0.06157616  0.07362760     0.09700
C3636       C  0.65123020  0.05230227  0.06919045     0.35600
C3637       C  0.59790080  0.01468953  0.02824341     0.39000
C3638       C  0.60906675  0.05582613  0.09116814    -0.04500
C3639       C  0.60273213  0.06840006  0.10393630     0.02600
C3640       C  0.60156337  0.08683449  0.09935951    -0.04100
C3641       C  0.60675811  0.09266275  0.08197892    -0.00400
C3642       C  0.61283784  0.08003391  0.06910497    -0.02900
C3643       C  0.61087150  0.03695263  0.09607804     0.36300
C3644       C  0.60558336  0.11162926  0.07730324     0.39900
C3645       C  0.59729132  0.06236079  0.12174399     0.39100
C3646       C  0.61811340  0.08595634  0.05121998     0.36000
C3647       C  0.58815243  0.04568173  0.04916376     0.36700
C3648       C  0.66130820  0.02186738  0.04767525     0.39900
N3649       N  0.59291431  0.05750225  0.13592868    -0.38100
N3650       N  0.61247283  0.02191246  0.09997706    -0.39700
N3651       N  0.60461191  0.12677897  0.07363124    -0.37500
N3652       N  0.62237425  0.09063933  0.03694161    -0.39900
N3653       N  0.66194259  0.06013010  0.07736332    -0.39600
N3654       N  0.67610899  0.01702791  0.04739170    -0.37300
N3655       N  0.58710296  0.00691001  0.02013506    -0.38300
N3656       N  0.57351688  0.05100370  0.04901983    -0.40000
C3657       C  0.94397584  0.55991716  0.92745838    -0.04900
C3658       C  0.93295990  0.57441410  0.92201253     0.09200
C3659       C  0.93446444  0.59133113  0.93056723    -0.02300
C3660       C  0.94655674  0.59358678  0.94499464    -0.00600
C3661       C  0.95766660  0.57911555  0.95037960    -0.04200
C3662       C  0.95654101  0.56235204  0.94141045     0.02800
C3663       C  0.91948158  0.57171732  0.90743448     0.09700
C3664       C  0.92354108  0.60635414  0.92446824     0.35600
C3665       C  0.96840245  0.54766621  0.94652505     0.39000
C3666       C  0.90238945  0.56464042  0.91166894    -0.04500
C3667       C  0.88988708  0.56132908  0.89783189     0.02600
C3668       C  0.89436742  0.56532139  0.87974085    -0.04100
C3669       C  0.91126310  0.57297214  0.87558137    -0.00400
C3670       C  0.92391426  0.57592825  0.88941638    -0.02900
C3671       C  0.89780873  0.56055392  0.93026477     0.36300
C3672       C  0.91583564  0.57729790  0.85705406     0.39900
C3673       C  0.87234743  0.55389563  0.90221433     0.39100
C3674       C  0.94169213  0.58281735  0.88516546     0.36000
C3675       C  0.94221308  0.54245832  0.91880618     0.36700
C3676       C  0.94733742  0.61063558  0.95454512     0.39900
N3677       N  0.85836146  0.54794937  0.90567104    -0.38100
N3678       N  0.89419335  0.55729233  0.94510501    -0.39700
N3679       N  0.91954615  0.58082975  0.84229922    -0.37500
N3680       N  0.95595238  0.58820465  0.88192915    -0.39900
N3681       N  0.91489687  0.61832611  0.91943570    -0.39600
N3682       N  0.94781412  0.62418246  0.96228370    -0.37300
N3683       N  0.97805311  0.53607788  0.95050517    -0.38300
N3684       N  0.94072248  0.52850098  0.91198004    -0.40000
C3685       C  0.93216058  0.55310231  0.06291244    -0.04900
C3686       C  0.92441826  0.56836754  0.07133796     0.09200
C3687       C  0.93047696  0.58582697  0.06661134    -0.02300
C3688       C  0.94353154  0.58806423  0.05298890    -0.00600
C3689       C  0.95106916  0.57284034  0.04446310    -0.04200
C3690       C  0.94554454  0.55535868  0.04961220     0.02800
C3691       C  0.90978674  0.56614619  0.08509067     0.09700
C3692       C  0.92364069  0.60145115  0.07618794     0.35600
C3693       C  0.95386420  0.53970334  0.04131930     0.39000
C3694       C  0.91363422  0.55865222  0.10219095    -0.04500
C3695       C  0.89966736  0.55580445  0.11473953     0.02600
C3696       C  0.88193317  0.56116296  0.11060027    -0.04100
C3697       C  0.87829208  0.56989077  0.09409843    -0.00400
C3698       C  0.89204352  0.57179621  0.08110663    -0.02900
C3699       C  0.93195055  0.55378596  0.10684630     0.36300
C3700       C  0.86036640  0.57667523  0.09038802     0.39900
C3701       C  0.90352836  0.54752272  0.13205995     0.39100
C3702       C  0.88782624  0.57904109  0.06341742     0.36000
C3703       C  0.92662973  0.53505863  0.06813876     0.36700
C3704       C  0.94956172  0.60599561  0.04799944     0.39900
N3705       N  0.90648119  0.54092972  0.14590291    -0.38100
N3706       N  0.94654998  0.54983212  0.11054407    -0.39700
N3707       N  0.84614395  0.58233627  0.08750820    -0.37500
N3708       N  0.88449296  0.58476208  0.04927730    -0.39900
N3709       N  0.91818949  0.61385829  0.08392594    -0.39600
N3710       N  0.95446146  0.62028619  0.04404674    -0.37300
N3711       N  0.96060987  0.52729111  0.03468832    -0.38300
N3712       N  0.92247179  0.52063596  0.07246552    -0.40000
C3713       C  0.07375142  0.59950093  0.94028977    -0.04900
C3714       C  0.08061834  0.58233677  0.93567038     0.09200
C3715       C  0.07280123  0.56667183  0.94311198    -0.02300
C3716       C  0.05822679  0.56811066  0.95513853    -0.00600
C3717       C  0.05119701  0.58523759  0.95963531    -0.04200
C3718       C  0.05888638  0.60093016  0.95210246     0.02800
C3719       C  0.09550136  0.58040240  0.92223708     0.09700
C3720       C  0.07958829  0.54902857  0.93803558     0.35600
C3721       C  0.05122843  0.61842320  0.95627096     0.39000
C3722       C  0.11340836  0.57805004  0.92812187    -0.04500
C3723       C  0.12712910  0.57420906  0.91551669     0.02600
C3724       C  0.12293598  0.57253085  0.89703264    -0.04100
C3725       C  0.10501624  0.57471863  0.89118062    -0.00400
C3726       C  0.09133736  0.57867833  0.90374778    -0.02900
C3727       C  0.11745742  0.57853003  0.94725096     0.36300
C3728       C  0.10049155  0.57184806  0.87236802     0.39900
C3729       C  0.14544539  0.57133474  0.92160479     0.39100
C3730       C  0.07276619  0.57981898  0.89785950     0.36000
C3731       C  0.08193155  0.61561585  0.93282056     0.36700
C3732       C  0.05011177  0.55190249  0.96255109     0.39900
N3733       N  0.16005318  0.56896448  0.92644755    -0.38100
N3734       N  0.12057745  0.57868993  0.96254321    -0.39700
N3735       N  0.09684494  0.56940604  0.85739456    -0.37500
N3736       N  0.05791917  0.58053763  0.89323259    -0.39900
N3737       N  0.08505255  0.53501861  0.93385972    -0.39600
N3738       N  0.04359595  0.53898382  0.96842538    -0.37300
N3739       N  0.04495237  0.63232848  0.95956101    -0.38300
N3740       N  0.08848257  0.62850957  0.92692723    -0.40000
C3741       C  0.04646322  0.54582639  0.07808987    -0.04900
C3742       C  0.06499317  0.54932429  0.07651198     0.09200
C3743       C  0.07237531  0.55291000  0.05941175    -0.02300
C3744       C  0.06091048  0.55477318  0.04447886    -0.00600
C3745       C  0.04214414  0.55701862  0.04726361    -0.04200
C3746       C  0.03512221  0.54878507  0.06316922     0.02800
C3747       C  0.07689972  0.54749793  0.09247415     0.09700
C3748       C  0.09168591  0.55460182  0.05716643     0.35600
C3749       C  0.01717551  0.54106459  0.06348476     0.39000
C3750       C  0.08649174  0.53137702  0.09531580    -0.04500
C3751       C  0.09797859  0.52972594  0.11028690     0.02600
C3752       C  0.09930352  0.54400612  0.12298326    -0.04100
C3753       C  0.08944380  0.56011953  0.12008307    -0.00400
C3754       C  0.07848127  0.56189771  0.10473128    -0.02900
C3755       C  0.08437791  0.51644047  0.08282691     0.36300
C3756       C  0.09003000  0.57473973  0.13309163     0.39900
C3757       C  0.10881142  0.51351638  0.11211256     0.39100
C3758       C  0.06872187  0.57855348  0.10152361     0.36000
C3759       C  0.03920599  0.53897394  0.09494080     0.36700
C3760       C  0.06798205  0.55041803  0.02677112     0.39900
N3761       N  0.11742908  0.50057831  0.11348190    -0.38100
N3762       N  0.08259419  0.50456296  0.07286134    -0.39700
N3763       N  0.09054412  0.58639076  0.14346727    -0.37500
N3764       N  0.06096186  0.59184375  0.09895257    -0.39900
N3765       N  0.10709845  0.55609312  0.05550871    -0.39600
N3766       N  0.07368084  0.54668855  0.01271973    -0.37300
N3767       N  0.00293170  0.53475078  0.06386025    -0.38300
N3768       N  0.03351456  0.53347517  0.10840706    -0.40000
C3769       C  0.43198431  0.40233156  0.91157305    -0.04900
C3770       C  0.42157498  0.39656016  0.89674289     0.09200
C3771       C  0.42409030  0.40448443  0.87960580    -0.02300
C3772       C  0.43718198  0.41801828  0.87726775    -0.00600
C3773       C  0.44783354  0.42344676  0.89201511    -0.04200
C3774       C  0.44509488  0.41576351  0.90920336     0.02800
C3775       C  0.40810525  0.38195423  0.89938569     0.09700
C3776       C  0.41332113  0.39858843  0.86441730     0.35600
C3777       C  0.45568399  0.42187144  0.92446650     0.39000
C3778       C  0.38967859  0.38622705  0.90105058    -0.04500
C3779       C  0.37727056  0.37268050  0.90578681     0.02600
C3780       C  0.38333357  0.35495127  0.90899527    -0.04100
C3781       C  0.40166079  0.35057380  0.90689260    -0.00400
C3782       C  0.41400590  0.36401798  0.90180144    -0.02900
C3783       C  0.38358658  0.40460876  0.89823544     0.36300
C3784       C  0.40792710  0.33244023  0.91076297     0.39900
C3785       C  0.35831853  0.37699380  0.90762874     0.39100
C3786       C  0.43285769  0.35953273  0.89936922     0.36000
C3787       C  0.42921527  0.39437022  0.92926291     0.36700
C3788       C  0.43975865  0.42638435  0.85976497     0.39900
N3789       N  0.34319426  0.38041246  0.90908007    -0.38100
N3790       N  0.37874394  0.41926307  0.89587965    -0.39700
N3791       N  0.41299284  0.31804255  0.91404155    -0.37500
N3792       N  0.44790021  0.35600595  0.89740719    -0.39900
N3793       N  0.40467027  0.39391580  0.85232088    -0.39600
N3794       N  0.44181744  0.43314080  0.84583247    -0.37300
N3795       N  0.46410528  0.42684496  0.93660651    -0.38300
N3796       N  0.42703690  0.38792398  0.94332474    -0.40000
C3797       C  0.56716939  0.40292343  0.88152126    -0.04900
C3798       C  0.56759444  0.39209704  0.89717246     0.09200
C3799       C  0.55376924  0.39361915  0.91015080    -0.02300
C3800       C  0.54021229  0.40674335  0.90806570    -0.00600
C3801       C  0.54025893  0.41817510  0.89281087    -0.04200
C3802       C  0.55340042  0.41580216  0.87924258     0.02800
C3803       C  0.58306890  0.37968300  0.90051643     0.09700
C3804       C  0.55364787  0.38176589  0.92573496     0.35600
C3805       C  0.55274609  0.42671200  0.86300691     0.39000
C3806       C  0.59765793  0.38556322  0.91115870    -0.04500
C3807       C  0.61169589  0.37354715  0.91549083     0.02600
C3808       C  0.61122113  0.35558221  0.90918859    -0.04100
C3809       C  0.59707373  0.34997859  0.89774724    -0.00400
C3810       C  0.58298246  0.36201024  0.89349012    -0.02900
C3811       C  0.59815657  0.40401636  0.91765588     0.36300
C3812       C  0.59669788  0.33169425  0.89079518     0.39900
C3813       C  0.62688403  0.37978097  0.92606775     0.39100
C3814       C  0.56822951  0.35619972  0.88210214     0.36000
C3815       C  0.58110506  0.40099238  0.86795943     0.36700
C3816       C  0.52643594  0.40878544  0.92179650     0.39900
N3817       N  0.63908022  0.38471850  0.93440627    -0.38100
N3818       N  0.59852505  0.41876071  0.92277253    -0.39700
N3819       N  0.59640814  0.31712833  0.88518381    -0.37500
N3820       N  0.55644422  0.35165121  0.87298603    -0.39900
N3821       N  0.55352323  0.37223148  0.93810956    -0.39600
N3822       N  0.51538236  0.41041892  0.93268431    -0.37300
N3823       N  0.55212386  0.43539919  0.85004064    -0.38300
N3824       N  0.59224805  0.39940256  0.85716007    -0.40000
C3825       C  0.43140097  0.53952604  0.88041365    -0.04900
C3826       C  0.42684813  0.54548706  0.89791675     0.09200
C3827       C  0.43515749  0.53758129  0.91310392    -0.02300
C3828       C  0.44798827  0.52378743  0.91076987    -0.00600
C3829       C  0.45230432  0.51761669  0.89327967    -0.04200
C3830       C  0.44391828  0.52543640  0.87811077     0.02800
C3831       C  0.41299275  0.55987529  0.90029458     0.09700
C3832       C  0.43039841  0.54356015  0.93111513     0.35600
C3833       C  0.44800390  0.51878792  0.86018259     0.39000
C3834       C  0.39519353  0.55517696  0.90506788    -0.04500
C3835       C  0.38204903  0.56871808  0.90701994     0.02600
C3836       C  0.38669009  0.58695409  0.90426289    -0.04100
C3837       C  0.40427538  0.59163694  0.89894004    -0.00400
C3838       C  0.41749662  0.57813661  0.89719922    -0.02900
C3839       C  0.39044239  0.53641846  0.90800539     0.36300
C3840       C  0.40870885  0.61036185  0.89531941     0.39900
C3841       C  0.36361741  0.56392380  0.91140361     0.39100
C3842       C  0.43580011  0.58303417  0.89250836     0.36000
C3843       C  0.42309460  0.54788444  0.86480496     0.36700
C3844       C  0.45659750  0.51566534  0.92634627     0.39900
N3845       N  0.34885848  0.56020387  0.91474034    -0.38100
N3846       N  0.38665855  0.52146176  0.91043040    -0.39700
N3847       N  0.41209115  0.62531021  0.89231038    -0.37500
N3848       N  0.45041217  0.58697119  0.88880344    -0.39900
N3849       N  0.42654920  0.54823854  0.94550327    -0.39600
N3850       N  0.46351594  0.50907130  0.93867952    -0.37300
N3851       N  0.45121097  0.51344565  0.84587126    -0.38300
N3852       N  0.41651221  0.55472182  0.85241947    -0.40000
C3853       C  0.56988111  0.52878798  0.88061684    -0.04900
C3854       C  0.57223868  0.53836171  0.89688360     0.09200
C3855       C  0.56124503  0.53450855  0.91192761    -0.02300
C3856       C  0.54757033  0.52146735  0.91056390    -0.00600
C3857       C  0.54501642  0.51209431  0.89421339    -0.04200
C3858       C  0.55627068  0.51563995  0.87928535     0.02800
C3859       C  0.58614227  0.55277225  0.89821286     0.09700
C3860       C  0.56412645  0.54396429  0.92881030     0.35600
C3861       C  0.55365213  0.50588067  0.86254044     0.39000
C3862       C  0.58099536  0.57106964  0.89710985    -0.04500
C3863       C  0.59390411  0.58475737  0.89957749     0.02600
C3864       C  0.61198992  0.58014655  0.90300295    -0.04100
C3865       C  0.61717863  0.56185462  0.90383310    -0.00400
C3866       C  0.60423558  0.54816996  0.90157136    -0.02900
C3867       C  0.56226324  0.57572729  0.89416203     0.36300
C3868       C  0.63576882  0.55715326  0.90747557     0.39900
C3869       C  0.58844846  0.60354854  0.89933871     0.39100
C3870       C  0.60930040  0.52936724  0.90352965     0.36000
C3871       C  0.58143465  0.53254328  0.86528820     0.36700
C3872       C  0.53610363  0.51766548  0.92595561     0.39900
N3873       N  0.58401267  0.61851672  0.89922478    -0.38100
N3874       N  0.54727096  0.57932117  0.89197248    -0.39700
N3875       N  0.65060674  0.55343438  0.91038170    -0.37500
N3876       N  0.61322379  0.51434760  0.90520589    -0.39900
N3877       N  0.56653678  0.55156553  0.94222260    -0.39600
N3878       N  0.52693862  0.51465359  0.93822749    -0.37300
N3879       N  0.55151216  0.49805723  0.84920922    -0.38300
N3880       N  0.59072690  0.53551425  0.85310273    -0.40000
C3881       C  0.42860801  0.40177400  0.13479067    -0.04900
C3882       C  0.42310735  0.39831097  0.11691770     0.09200
C3883       C  0.43003085  0.40869904  0.10254811    -0.02300
C3884       C  0.44251966  0.42248212  0.10603484    -0.00600
C3885       C  0.44805342  0.42591610  0.12390362    -0.04200
C3886       C  0.44104819  0.41565143  0.13829123     0.02800
C3887       C  0.40974573  0.38388940  0.11311231     0.09700
C3888       C  0.42441413  0.40504812  0.08417220     0.35600
C3889       C  0.44675279  0.41938403  0.15661189     0.39000
C3890       C  0.39130895  0.38823743  0.11219859    -0.04500
C3891       C  0.37869743  0.37488515  0.10752978     0.02600
C3892       C  0.38454776  0.35723757  0.10356355    -0.04100
C3893       C  0.40299800  0.35285121  0.10455742    -0.00400
C3894       C  0.41558283  0.36614643  0.10953730    -0.02900
C3895       C  0.38542663  0.40655520  0.11575752     0.36300
C3896       C  0.40904099  0.33472901  0.10033652     0.39900
C3897       C  0.35974791  0.37939159  0.10631774     0.39100
C3898       C  0.43454109  0.36168131  0.11088628     0.36000
C3899       C  0.42159398  0.39092736  0.14948668     0.36700
C3900       C  0.45007307  0.43288525  0.09124618     0.39900
N3901       N  0.34462368  0.38295206  0.10531765    -0.38100
N3902       N  0.38082347  0.42120358  0.11856395    -0.39700
N3903       N  0.41395654  0.32030911  0.09693272    -0.37500
N3904       N  0.44966264  0.35815286  0.11206741    -0.39900
N3905       N  0.41993409  0.40212634  0.06951621    -0.39600
N3906       N  0.45621514  0.44119721  0.07953319    -0.37300
N3907       N  0.45132378  0.42247105  0.17120548    -0.38300
N3908       N  0.41604145  0.38222596  0.16120981    -0.40000
C3909       C  0.38953008  0.55133641  0.10644431    -0.04900
C3910       C  0.40758705  0.55531876  0.10218388     0.09200
C3911       C  0.41188836  0.57112743  0.09253237    -0.02300
C3912       C  0.39810566  0.58275605  0.08670960    -0.00600
C3913       C  0.37999086  0.57888824  0.09106359    -0.04200
C3914       C  0.37574114  0.56320030  0.10106043     0.02800
C3915       C  0.42204421  0.54222145  0.10675515     0.09700
C3916       C  0.43054417  0.57532063  0.08854775     0.35600
C3917       C  0.35713720  0.55885207  0.10514707     0.39000
C3918       C  0.42634821  0.52840373  0.09443079    -0.04500
C3919       C  0.44014221  0.51607951  0.09847260     0.02600
C3920       C  0.44949728  0.51740111  0.11497968    -0.04100
C3921       C  0.44544523  0.53145988  0.12714778    -0.00400
C3922       C  0.43170062  0.54387926  0.12303177    -0.02900
C3923       C  0.41659986  0.52700894  0.07753998     0.36300
C3924       C  0.45552326  0.53316592  0.14379592     0.39900
C3925       C  0.44498221  0.50223754  0.08552179     0.39100
C3926       C  0.42752690  0.55843273  0.13541210     0.36000
C3927       C  0.38517984  0.53482006  0.11603160     0.36700
C3928       C  0.40262685  0.59875008  0.07634165     0.39900
N3929       N  0.44892049  0.49126261  0.07514797    -0.38100
N3930       N  0.40876103  0.52599973  0.06409880    -0.39700
N3931       N  0.46366462  0.53455546  0.15702041    -0.37500
N3932       N  0.42419296  0.57010013  0.14522943    -0.39900
N3933       N  0.44545113  0.57865172  0.08548774    -0.39600
N3934       N  0.40621828  0.61142521  0.06794310    -0.37300
N3935       N  0.34229722  0.55537857  0.10838601    -0.38300
N3936       N  0.38175759  0.52159188  0.12360680    -0.40000
C3937       C  0.57693348  0.36862856  0.10321964    -0.04900
C3938       C  0.58101631  0.38287874  0.11517233     0.09200
C3939       C  0.59874387  0.38508246  0.12151778    -0.02300
C3940       C  0.61247221  0.37343274  0.11552250    -0.00600
C3941       C  0.60851587  0.35937136  0.10323271    -0.04200
C3942       C  0.59062676  0.35686594  0.09729534     0.02800
C3943       C  0.56720413  0.39693997  0.11918120     0.09700
C3944       C  0.60296931  0.39981265  0.13368732     0.35600
C3945       C  0.58620087  0.34205120  0.08531870     0.39000
C3946       C  0.55851246  0.39767570  0.13613719    -0.04500
C3947       C  0.54570044  0.41129310  0.13962584     0.02600
C3948       C  0.54167461  0.42418862  0.12620407    -0.04100
C3949       C  0.54992704  0.42302815  0.10909781    -0.00400
C3950       C  0.56285140  0.40965169  0.10569683    -0.02900
C3951       C  0.56250887  0.38427035  0.14981471     0.36300
C3952       C  0.54429835  0.43496276  0.09464173     0.39900
C3953       C  0.53611361  0.41167814  0.15667823     0.39100
C3954       C  0.57151955  0.40876807  0.08816131     0.36000
C3955       C  0.55869103  0.36649519  0.09658922     0.36700
C3956       C  0.63085352  0.37652120  0.12134864     0.39900
N3957       N  0.52823900  0.41192681  0.17015733    -0.38100
N3958       N  0.56564242  0.37360577  0.16078669    -0.39700
N3959       N  0.53956968  0.44428138  0.08305082    -0.37500
N3960       N  0.57837159  0.40790785  0.07416210    -0.39900
N3961       N  0.60629788  0.41155627  0.14340838    -0.39600
N3962       N  0.64552436  0.37900446  0.12593500    -0.37300
N3963       N  0.58260970  0.33024690  0.07576519    -0.38300
N3964       N  0.54415583  0.36501974  0.09120586    -0.40000
C3965       C  0.58435173  0.56582685  0.09081650    -0.04900
C3966       C  0.58679354  0.55236028  0.10400905     0.09200
C3967       C  0.60374486  0.55005921  0.11220349    -0.02300
C3968       C  0.61840913  0.56090901  0.10685750    -0.00600
C3969       C  0.61608113  0.57424944  0.09340521    -0.04200
C3970       C  0.59889432  0.57682626  0.08559119     0.02800
C3971       C  0.57182248  0.53964622  0.10820421     0.09700
C3972       C  0.60608539  0.53626300  0.12590034     0.35600
C3973       C  0.59599678  0.59103824  0.07241579     0.39000
C3974       C  0.56947643  0.52416633  0.09742399    -0.04500
C3975       C  0.55521426  0.51220294  0.10097312     0.02600
C3976       C  0.54351567  0.51540753  0.11566358    -0.04100
C3977       C  0.54581270  0.53097174  0.12639692    -0.00400
C3978       C  0.55991214  0.54312481  0.12261525    -0.02900
C3979       C  0.58188584  0.52053582  0.08273772     0.36300
C3980       C  0.53365485  0.53439856  0.14133160     0.39900
C3981       C  0.55246667  0.49670105  0.08937408     0.39100
C3982       C  0.56222475  0.55916549  0.13354547     0.36000
C3983       C  0.56685689  0.56819555  0.08247653     0.36700
C3984       C  0.63602816  0.55777607  0.11464590     0.39900
N3985       N  0.55034713  0.48437733  0.08004652    -0.38100
N3986       N  0.59187065  0.51768369  0.07109312    -0.39700
N3987       N  0.52381877  0.53705819  0.15314939    -0.37500
N3988       N  0.56403894  0.57195785  0.14229848    -0.39900
N3989       N  0.60782807  0.52525321  0.13684332    -0.39600
N3990       N  0.65007984  0.55516479  0.12083062    -0.37300
N3991       N  0.59375604  0.60235851  0.06188681    -0.38300
N3992       N  0.55291332  0.57005870  0.07580093    -0.40000
C3993       C  0.89313338  0.36177511  0.41690981    -0.04900
C3994       C  0.89327175  0.38029202  0.41247273     0.09200
C3995       C  0.89799632  0.38580582  0.39484268    -0.02300
C3996       C  0.90290495  0.37284188  0.38181294    -0.00600
C3997       C  0.90355792  0.35443149  0.38655264    -0.04200
C3998       C  0.89857926  0.34889798  0.40407290     0.02800
C3999       C  0.88983871  0.39402458  0.42680177     0.09700
C4000       C  0.89805341  0.40482658  0.39024069     0.35600
C4001       C  0.89958467  0.32996330  0.40900449     0.39000
C4002       C  0.90390856  0.39896422  0.43857086    -0.04500
C4003       C  0.90093985  0.41196481  0.45209387     0.02600
C4004       C  0.88388317  0.42014319  0.45389750    -0.04100
C4005       C  0.86981869  0.41526737  0.44206275    -0.00400
C4006       C  0.87275510  0.40212620  0.42861274    -0.02900
C4007       C  0.92154135  0.39081584  0.43652447     0.36300
C4008       C  0.85243537  0.42401658  0.44358544     0.39900
C4009       C  0.91556367  0.41733155  0.46386041     0.39100
C4010       C  0.85826425  0.39695956  0.41659862     0.36000
C4011       C  0.88744203  0.35600308  0.43472242     0.36700
C4012       C  0.90703922  0.37835600  0.36348968     0.39900
N4013       N  0.92721607  0.42166216  0.47324766    -0.38100
N4014       N  0.93557253  0.38426962  0.43480180    -0.39700
N4015       N  0.83861037  0.43110216  0.44476500    -0.37500
N4016       N  0.84669067  0.39284094  0.40701652    -0.39900
N4017       N  0.89810828  0.42001517  0.38659618    -0.39600
N4018       N  0.91021945  0.38268732  0.34882213    -0.37300
N4019       N  0.90054235  0.31484803  0.41282362    -0.38300
N4020       N  0.88279373  0.35133662  0.44888366    -0.40000
C4021       C  0.87703475  0.40577614  0.57282812    -0.04900
C4022       C  0.89510529  0.40041468  0.57531584     0.09200
C4023       C  0.90852464  0.40686132  0.56344786    -0.02300
C4024       C  0.90396144  0.41886713  0.54942086    -0.00600
C4025       C  0.88595994  0.42449599  0.54715957    -0.04200
C4026       C  0.87248254  0.41784734  0.55881651     0.02800
C4027       C  0.89998789  0.38788543  0.59040882     0.09700
C4028       C  0.92703319  0.40110533  0.56566727     0.35600
C4029       C  0.85395406  0.42340796  0.55630664     0.39000
C4030       C  0.90275579  0.36935852  0.58695284    -0.04500
C4031       C  0.90721320  0.35752224  0.60118303     0.02600
C4032       C  0.90878191  0.36412503  0.61895297    -0.04100
C4033       C  0.90610683  0.38264473  0.62243019    -0.00400
C4034       C  0.90181184  0.39452424  0.60817450    -0.02900
C4035       C  0.90099553  0.36252046  0.56871792     0.36300
C4036       C  0.90767226  0.38942567  0.64071269     0.39900
C4037       C  0.91033141  0.33855189  0.59755089     0.39100
C4038       C  0.89941078  0.41361569  0.61172156     0.36000
C4039       C  0.86312825  0.39866619  0.58458717     0.36700
C4040       C  0.91778968  0.42563963  0.53735134     0.39900
N4041       N  0.91288209  0.32342008  0.59467731    -0.38100
N4042       N  0.89962869  0.35714622  0.55413049    -0.39700
N4043       N  0.90887202  0.39480031  0.65531639    -0.37500
N4044       N  0.89751666  0.42885691  0.61453273    -0.39900
N4045       N  0.94179429  0.39644026  0.56734622    -0.39600
N4046       N  0.92871859  0.43111270  0.52764970    -0.37300
N4047       N  0.83916537  0.42783835  0.55426783    -0.38300
N4048       N  0.85206306  0.39292190  0.59397105    -0.40000
C4049       C  0.89810913  0.53602574  0.43478014    -0.04900
C4050       C  0.88323213  0.54147965  0.42426929     0.09200
C4051       C  0.86645364  0.53280607  0.42643435    -0.02300
C4052       C  0.86460735  0.51871260  0.43908504    -0.00600
C4053       C  0.87921338  0.51406053  0.45029663    -0.04200
C4054       C  0.89596795  0.52271727  0.44810923     0.02800
C4055       C  0.88555000  0.55644083  0.41100678     0.09700
C4056       C  0.85108789  0.53860282  0.41587930     0.35600
C4057       C  0.91096671  0.51796146  0.45968834     0.39000
C4058       C  0.88667054  0.55262289  0.39238706    -0.04500
C4059       C  0.89154041  0.56634183  0.38017561     0.02600
C4060       C  0.89591537  0.58368697  0.38664030    -0.04100
C4061       C  0.89450063  0.58760720  0.40517907    -0.00400
C4062       C  0.88872364  0.57415310  0.41727399    -0.02900
C4063       C  0.88358420  0.53442077  0.38590624     0.36300
C4064       C  0.89971761  0.60522948  0.41188547     0.39900
C4065       C  0.89295045  0.56240062  0.36105280     0.39100
C4066       C  0.88648870  0.57833572  0.43626880     0.36000
C4067       C  0.91566277  0.54409203  0.43177845     0.36700
C4068       C  0.84777586  0.50892979  0.44055363     0.39900
N4069       N  0.89411996  0.55929454  0.34579817    -0.38100
N4070       N  0.88109724  0.51989636  0.38075610    -0.39700
N4071       N  0.90411013  0.61919921  0.41728261    -0.37500
N4072       N  0.88464513  0.58160349  0.45142380    -0.39900
N4073       N  0.83884583  0.54328555  0.40745467    -0.39600
N4074       N  0.83441507  0.50097199  0.44158835    -0.37300
N4075       N  0.92287269  0.51422357  0.46901588    -0.38300
N4076       N  0.92962001  0.55056030  0.42928287    -0.40000
C4077       C  0.87043233  0.53610521  0.56919138    -0.04900
C4078       C  0.88719381  0.54509057  0.56960600     0.09200
C4079       C  0.90031786  0.54107480  0.55642449    -0.02300
C4080       C  0.89673336  0.52821340  0.54290644    -0.00600
C4081       C  0.88022611  0.51875708  0.54283578    -0.04200
C4082       C  0.86702844  0.52284030  0.55593692     0.02800
C4083       C  0.89126293  0.55885952  0.58383785     0.09700
C4084       C  0.91772434  0.54991682  0.55708872     0.35600
C4085       C  0.85004076  0.51322257  0.55581700     0.39000
C4086       C  0.90268188  0.55440584  0.59840058    -0.04500
C4087       C  0.90814510  0.56783311  0.61071320     0.02600
C4088       C  0.90244464  0.58586092  0.60840424    -0.04100
C4089       C  0.89070767  0.59025476  0.59408050    -0.00400
C4090       C  0.88505619  0.57676437  0.58189523    -0.02900
C4091       C  0.90931759  0.53610114  0.60032685     0.36300
C4092       C  0.88530191  0.60885304  0.59124690     0.39900
C4093       C  0.91961308  0.56309912  0.62582254     0.39100
C4094       C  0.87343260  0.58142174  0.56689780     0.36000
C4095       C  0.85684114  0.54030277  0.58258610     0.36700
C4096       C  0.91013135  0.52456527  0.52914034     0.39900
N4097       N  0.92872496  0.55937689  0.63791655    -0.38100
N4098       N  0.91476713  0.52154333  0.60175931    -0.39700
N4099       N  0.88111745  0.62372000  0.58894664    -0.37500
N4100       N  0.86414875  0.58509803  0.55492378    -0.39900
N4101       N  0.93165023  0.55685639  0.55787548    -0.39600
N4102       N  0.92075208  0.52179569  0.51805476    -0.37300
N4103       N  0.83653258  0.50545439  0.55568106    -0.38300
N4104       N  0.84595858  0.54368158  0.59323979    -0.40000
C4105       C  0.40928611  0.84231736  0.39830789    -0.04900
C4106       C  0.40817139  0.84726228  0.41664891     0.09200
C4107       C  0.39249332  0.85572580  0.42326723    -0.02300
C4108       C  0.37829597  0.85993507  0.41142214    -0.00600
C4109       C  0.37986661  0.85599379  0.39288774    -0.04200
C4110       C  0.39517498  0.84672863  0.38640328     0.02800
C4111       C  0.42396687  0.84461565  0.42878043     0.09700
C4112       C  0.39118823  0.86048862  0.44219044     0.35600
C4113       C  0.39676315  0.84243205  0.36736913     0.39000
C4114       C  0.43675313  0.85856300  0.43062016    -0.04500
C4115       C  0.45150154  0.85638503  0.44231418     0.02600
C4116       C  0.45335172  0.84038723  0.45250419    -0.04100
C4117       C  0.44063422  0.82637260  0.45057390    -0.00400
C4118       C  0.42600730  0.82844874  0.43863121    -0.02900
C4119       C  0.43445050  0.87533965  0.42078243     0.36300
C4120       C  0.44249218  0.80998544  0.46109421     0.39900
C4121       C  0.46462165  0.87076234  0.44419681     0.39100
C4122       C  0.41286043  0.81413604  0.43665602     0.36000
C4123       C  0.42518096  0.83312112  0.39164518     0.36700
C4124       C  0.36192739  0.86811059  0.41827813     0.39900
N4125       N  0.47515686  0.88215928  0.44571370    -0.38100
N4126       N  0.43252627  0.88875418  0.41301459    -0.39700
N4127       N  0.44395948  0.79693185  0.46954613    -0.37500
N4128       N  0.40232319  0.80275670  0.43502824    -0.39900
N4129       N  0.39015454  0.86433755  0.45728251    -0.39600
N4130       N  0.34875506  0.87448444  0.42364236    -0.37300
N4131       N  0.39798318  0.83901133  0.35218368    -0.38300
N4132       N  0.43785355  0.82574712  0.38635396    -0.40000
C4133       C  0.59855819  0.86341517  0.40694685    -0.04900
C4134       C  0.58088495  0.85876310  0.40181971     0.09200
C4135       C  0.57550838  0.86036314  0.38364639    -0.02300
C4136       C  0.58768388  0.86702036  0.37067526    -0.00600
C4137       C  0.60538891  0.87149890  0.37579840    -0.04200
C4138       C  0.61083610  0.86968146  0.39391600     0.02800
C4139       C  0.56760706  0.85338285  0.41587222     0.09700
C4140       C  0.55748276  0.85506283  0.37837314     0.35600
C4141       C  0.62900317  0.87453843  0.39916062     0.39000
C4142       C  0.55576823  0.86645573  0.42294176    -0.04500
C4143       C  0.54407258  0.86189473  0.43711911     0.02600
C4144       C  0.54423970  0.84427391  0.44434752    -0.04100
C4145       C  0.55589491  0.83110322  0.43715450    -0.00400
C4146       C  0.56752446  0.83564013  0.42281705    -0.02900
C4147       C  0.55606272  0.88477005  0.41600600     0.36300
C4148       C  0.55622446  0.81311534  0.44484267     0.39900
C4149       C  0.53234278  0.87551876  0.44485462     0.39100
C4150       C  0.57967247  0.82224303  0.41541068     0.36000
C4151       C  0.60399410  0.86191813  0.42568166     0.36700
C4152       C  0.58192584  0.86961922  0.35216587     0.39900
N4153       N  0.52302972  0.88630986  0.45118890    -0.38100
N4154       N  0.55631524  0.89938427  0.41049635    -0.39700
N4155       N  0.55653556  0.79876992  0.45101819    -0.37500
N4156       N  0.58942448  0.81162070  0.40946541    -0.39900
N4157       N  0.54311502  0.85071509  0.37423202    -0.39600
N4158       N  0.57727172  0.87185263  0.33743821    -0.37300
N4159       N  0.64348295  0.87848213  0.40331200    -0.38300
N4160       N  0.60826931  0.86067491  0.44063873    -0.40000
C4161       C  0.44663230  0.87478079  0.56604238    -0.04900
C4162       C  0.43573445  0.86069372  0.57274232     0.09200
C4163       C  0.43788259  0.84298725  0.56613289    -0.02300
C4164       C  0.45053761  0.83944855  0.55246172    -0.00600
C4165       C  0.46120179  0.85357706  0.54549790    -0.04200
C4166       C  0.45939091  0.87122176  0.55243698     0.02800
C4167       C  0.42111171  0.86471025  0.58588874     0.09700
C4168       C  0.42679768  0.82850826  0.57321167     0.35600
C4169       C  0.47026120  0.88577564  0.54515722     0.39000
C4170       C  0.40334207  0.86708249  0.57962751    -0.04500
C4171       C  0.38940391  0.87077013  0.59193295     0.02600
C4172       C  0.39330763  0.87260611  0.61042751    -0.04100
C4173       C  0.41103089  0.87018972  0.61673912    -0.00400
C4174       C  0.42491320  0.86601117  0.60448440    -0.02900
C4175       C  0.39946605  0.86574413  0.56049755     0.36300
C4176       C  0.41492111  0.87202161  0.63582637     0.39900
C4177       C  0.37100683  0.87248599  0.58564016     0.39100
C4178       C  0.44303330  0.86282105  0.61097082     0.36000
C4179       C  0.44432891  0.89298734  0.57284250     0.36700
C4180       C  0.45236676  0.82136281  0.54523837     0.39900
N4181       N  0.35629675  0.87373209  0.58069510    -0.38100
N4182       N  0.39645160  0.86466348  0.54522337    -0.39700
N4183       N  0.41796315  0.87353356  0.65105961    -0.37500
N4184       N  0.45747166  0.86017890  0.61616681    -0.39900
N4185       N  0.41790595  0.81699927  0.57887834    -0.39600
N4186       N  0.45381310  0.80697647  0.53935819    -0.37300
N4187       N  0.47891165  0.89738998  0.53932355    -0.38300
N4188       N  0.44242962  0.90748571  0.57831365    -0.40000
C4189       C  0.56851732  0.87417022  0.55851196    -0.04900
C4190       C  0.58156433  0.86094396  0.56252020     0.09200
C4191       C  0.58088865  0.84398146  0.55393113    -0.02300
C4192       C  0.56695648  0.84011270  0.54163799    -0.00600
C4193       C  0.55383559  0.85332115  0.53768723    -0.04200
C4194       C  0.55480695  0.87044836  0.54597217     0.02800
C4195       C  0.59543673  0.86465086  0.57656608     0.09700
C4196       C  0.59435905  0.83043957  0.55804764     0.35600
C4197       C  0.54168636  0.88424557  0.54153572     0.39000
C4198       C  0.59083178  0.86308109  0.59497019    -0.04500
C4199       C  0.60341540  0.86773886  0.60835491     0.02600
C4200       C  0.62075793  0.87364976  0.60337230    -0.04100
C4201       C  0.62570413  0.87428883  0.58499827    -0.00400
C4202       C  0.61294854  0.87008544  0.57157692    -0.02900
C4203       C  0.57311177  0.85661917  0.60006048     0.36300
C4204       C  0.64406366  0.87862741  0.57995893     0.39900
C4205       C  0.59851673  0.86650849  0.62726803     0.39100
C4206       C  0.61775961  0.87140734  0.55265414     0.36000
C4207       C  0.56906863  0.89150264  0.56758129     0.36700
C4208       C  0.56587942  0.82243913  0.53333272     0.39900
N4209       N  0.59462982  0.86550983  0.64235939    -0.38100
N4210       N  0.55897020  0.85139727  0.60401103    -0.39700
N4211       N  0.65876950  0.88181932  0.57591409    -0.37500
N4212       N  0.62157232  0.87244911  0.53754550    -0.39900
N4213       N  0.60517019  0.81969998  0.56134734    -0.39600
N4214       N  0.56501041  0.80832621  0.52672055    -0.37300
N4215       N  0.53120062  0.89521987  0.53796260    -0.38300
N4216       N  0.56949749  0.90524915  0.57496326    -0.40000
C4217       C  0.10221801  0.34813601  0.42295448    -0.04900
C4218       C  0.10074060  0.36646191  0.41791579     0.09200
C4219       C  0.09492996  0.37093653  0.40035140    -0.02300
C4220       C  0.09105708  0.35720145  0.38775697    -0.00600
C4221       C  0.09264241  0.33887417  0.39274533    -0.04200
C4222       C  0.09821560  0.33437906  0.41039573     0.02800
C4223       C  0.10428016  0.38110503  0.43141548     0.09700
C4224       C  0.09225459  0.38970982  0.39550899     0.35600
C4225       C  0.09909490  0.31559149  0.41583817     0.39000
C4226       C  0.12101585  0.39014684  0.43174970    -0.04500
C4227       C  0.12399376  0.40432046  0.44414464     0.02600
C4228       C  0.11032826  0.40938770  0.45639558    -0.04100
C4229       C  0.09362619  0.40030406  0.45605305    -0.00400
C4230       C  0.09056952  0.38633654  0.44350869    -0.02900
C4231       C  0.13500284  0.38510453  0.41906623     0.36300
C4232       C  0.07937665  0.40577979  0.46824793     0.39900
C4233       C  0.14096962  0.41396867  0.44409934     0.39100
C4234       C  0.07307849  0.37772410  0.44253745     0.36000
C4235       C  0.10720665  0.34349242  0.44128474     0.36700
C4236       C  0.08559800  0.36196007  0.36959363     0.39900
N4237       N  0.15446478  0.42176299  0.44404645    -0.38100
N4238       N  0.14614278  0.38113833  0.40889269    -0.39700
N4239       N  0.06802453  0.41020651  0.47798011    -0.37500
N4240       N  0.05912391  0.37086990  0.44156680    -0.39900
N4241       N  0.08994987  0.40469472  0.39176345    -0.39600
N4242       N  0.08131454  0.36585819  0.35510354    -0.37300
N4243       N  0.09967622  0.30058652  0.42014307    -0.38300
N4244       N  0.11100828  0.33983819  0.45597648    -0.40000
C4245       C  0.08702593  0.53741039  0.38939358    -0.04900
C4246       C  0.09866877  0.54163942  0.40377486     0.09200
C4247       C  0.10670455  0.55883504  0.40475917    -0.02300
C4248       C  0.10233171  0.57214478  0.39192830    -0.00600
C4249       C  0.09033560  0.56807592  0.37771193    -0.04200
C4250       C  0.08293731  0.55057223  0.37630449     0.02800
C4251       C  0.10185022  0.52820868  0.41838237     0.09700
C4252       C  0.11938121  0.56281195  0.41908135     0.35600
C4253       C  0.07134241  0.54601850  0.36125043     0.39000
C4254       C  0.11690004  0.51666574  0.41763246    -0.04500
C4255       C  0.12015363  0.50439653  0.43177220     0.02600
C4256       C  0.10798489  0.50319235  0.44635842    -0.04100
C4257       C  0.09259953  0.51437801  0.44679926    -0.00400
C4258       C  0.08977938  0.52716329  0.43304610    -0.02900
C4259       C  0.12901947  0.51750750  0.40231553     0.36300
C4260       C  0.07966704  0.51266381  0.46138689     0.39900
C4261       C  0.13616818  0.49322786  0.43152423     0.39100
C4262       C  0.07464977  0.53949195  0.43409712     0.36000
C4263       C  0.07928689  0.51948391  0.38815001     0.36700
C4264       C  0.10943023  0.59027728  0.39394611     0.39900
N4265       N  0.14895233  0.48431857  0.43140886    -0.38100
N4266       N  0.13861932  0.51817353  0.39003038    -0.39700
N4267       N  0.06934069  0.51124531  0.47300214    -0.37500
N4268       N  0.06267761  0.54943751  0.43497295    -0.39900
N4269       N  0.12961504  0.56588722  0.43042386    -0.39600
N4270       N  0.11497386  0.60477979  0.39557499    -0.37300
N4271       N  0.06214613  0.54235966  0.34920778    -0.38300
N4272       N  0.07318972  0.50514428  0.38723181    -0.40000
C4273       C  0.09608259  0.40110308  0.56840147    -0.04900
C4274       C  0.11063738  0.39942955  0.58049484     0.09200
C4275       C  0.12689129  0.40861830  0.57700612    -0.02300
C4276       C  0.12859297  0.41945609  0.56145140    -0.00600
C4277       C  0.11408520  0.42103328  0.54926995    -0.04200
C4278       C  0.09784662  0.41175211  0.55273765     0.02800
C4279       C  0.10869178  0.38794786  0.59694861     0.09700
C4280       C  0.14172230  0.40712262  0.58960245     0.35600
C4281       C  0.08286681  0.41343594  0.54032688     0.39000
C4282       C  0.11347841  0.36953095  0.59634966    -0.04500
C4283       C  0.11011708  0.35830657  0.61135808     0.02600
C4284       C  0.10140625  0.36538262  0.62674138    -0.04100
C4285       C  0.09762630  0.38399705  0.62773319    -0.00400
C4286       C  0.10125107  0.39527431  0.61285392    -0.02900
C4287       C  0.12116903  0.36203744  0.57999766     0.36300
C4288       C  0.09024061  0.39152359  0.64421220     0.39900
C4289       C  0.11521305  0.33942015  0.61079581     0.39100
C4290       C  0.09686161  0.41431633  0.61367859     0.36000
C4291       C  0.07917648  0.39212774  0.57234234     0.36700
C4292       C  0.14519775  0.42914371  0.55799811     0.39900
N4293       N  0.11946050  0.32439997  0.61040854    -0.38100
N4294       N  0.12719316  0.35610423  0.56687736    -0.39700
N4295       N  0.08451176  0.39744718  0.65746793    -0.37500
N4296       N  0.09333130  0.42951027  0.61431640    -0.39900
N4297       N  0.15353127  0.40594916  0.59969530    -0.39600
N4298       N  0.15839195  0.43696059  0.55520557    -0.37300
N4299       N  0.07094928  0.41474723  0.53037853    -0.38300
N4300       N  0.06569274  0.38503770  0.57564758    -0.40000
C4301       C  0.10933161  0.55474399  0.59369585    -0.04900
C4302       C  0.11003281  0.55926366  0.57516767     0.09200
C4303       C  0.10644714  0.57722455  0.56976522    -0.02300
C4304       C  0.10134959  0.59028046  0.58268269    -0.00600
C4305       C  0.10011930  0.58553557  0.60108624    -0.04200
C4306       C  0.10434892  0.56782857  0.60658158     0.02800
C4307       C  0.11259872  0.54465198  0.56135094     0.09700
C4308       C  0.10752556  0.58212587  0.55084448     0.35600
C4309       C  0.10270735  0.56288478  0.62545567     0.39000
C4310       C  0.09765504  0.53849653  0.55129960    -0.04500
C4311       C  0.09944721  0.52371460  0.53948362     0.02600
C4312       C  0.11612235  0.51478604  0.53774089    -0.04100
C4313       C  0.13124501  0.52129716  0.54721862    -0.00400
C4314       C  0.12951135  0.53621873  0.55897387    -0.02900
C4315       C  0.08030266  0.54722698  0.55332159     0.36300
C4316       C  0.14859284  0.51272309  0.54466874     0.39900
C4317       C  0.08409154  0.51758604  0.52909646     0.39100
C4318       C  0.14509344  0.54288265  0.56864872     0.36000
C4319       C  0.11310150  0.53642597  0.59945548     0.36700
C4320       C  0.09682773  0.60845627  0.57699223     0.39900
N4321       N  0.07191209  0.51269937  0.52070745    -0.38100
N4322       N  0.06651220  0.55430994  0.55486001    -0.39700
N4323       N  0.16243190  0.50589652  0.54251240    -0.37500
N4324       N  0.15754429  0.54815570  0.57638417    -0.39900
N4325       N  0.10827647  0.58603160  0.53574014    -0.39600
N4326       N  0.09312549  0.62292679  0.57243100    -0.37300
N4327       N  0.10123938  0.55901863  0.64051577    -0.38300
N4328       N  0.11620244  0.52182879  0.60405505    -0.40000
C4329       C  0.41907635  0.06030556  0.40394964    -0.04900
C4330       C  0.41322658  0.06231812  0.42198335     0.09200
C4331       C  0.39479440  0.06028305  0.42614336    -0.02300
C4332       C  0.38235764  0.05584211  0.41245700    -0.00600
C4333       C  0.38826297  0.05344050  0.39451211    -0.04200
C4334       C  0.40664061  0.05581653  0.39027164     0.02800
C4335       C  0.42654565  0.06615481  0.43668681     0.09700
C4336       C  0.38870422  0.06261668  0.44459048     0.35600
C4337       C  0.41282021  0.05319490  0.37189144     0.39000
C4338       C  0.42801993  0.08368255  0.44403889    -0.04500
C4339       C  0.44067511  0.08726459  0.45775124     0.02600
C4340       C  0.45199885  0.07339672  0.46411023    -0.04100
C4341       C  0.45060478  0.05588876  0.45674773    -0.00400
C4342       C  0.43772618  0.05220984  0.44327989    -0.02900
C4343       C  0.41658863  0.09806054  0.43739146     0.36300
C4344       C  0.46274722  0.04179456  0.46277693     0.39900
C4345       C  0.44251957  0.10534420  0.46498177     0.39100
C4346       C  0.43584959  0.03403324  0.43629217     0.36000
C4347       C  0.43793049  0.06279813  0.39951773     0.36700
C4348       C  0.36347013  0.05369106  0.41685575     0.39900
N4349       N  0.44415805  0.11974175  0.47078376    -0.38100
N4350       N  0.40740869  0.10953276  0.43215968    -0.39700
N4351       N  0.47256664  0.03064366  0.46752264    -0.37500
N4352       N  0.43430033  0.01951793  0.43076069    -0.39900
N4353       N  0.38396077  0.06461163  0.45933065    -0.39600
N4354       N  0.34840049  0.05202501  0.42042758    -0.37300
N4355       N  0.41775998  0.05104569  0.35723677    -0.38300
N4356       N  0.45298263  0.06477954  0.39602051    -0.40000
C4357       C  0.41742142  0.07664858  0.61735337    -0.04900
C4358       C  0.41647108  0.07148998  0.59906009     0.09200
C4359       C  0.40137746  0.06180357  0.59278871    -0.02300
C4360       C  0.38731787  0.05724369  0.60473399    -0.00600
C4361       C  0.38836832  0.06210949  0.62312824    -0.04200
C4362       C  0.40344458  0.07187727  0.62939713     0.02800
C4363       C  0.43150277  0.07569300  0.58626858     0.09700
C4364       C  0.40049125  0.05632321  0.57401792     0.35600
C4365       C  0.40493315  0.07631708  0.64838569     0.39000
C4366       C  0.44497937  0.06269015  0.58301181    -0.04500
C4367       C  0.45770169  0.06542917  0.56916853     0.02600
C4368       C  0.45706837  0.08122525  0.55850423    -0.04100
C4369       C  0.44379950  0.09441318  0.56199188    -0.00400
C4370       C  0.43122073  0.09176920  0.57604297    -0.02900
C4371       C  0.44541336  0.04623715  0.59360857     0.36300
C4372       C  0.44264517  0.11030868  0.55063465     0.39900
C4373       C  0.47088968  0.05155053  0.56522011     0.39100
C4374       C  0.41776528  0.10541102  0.57984139     0.36000
C4375       C  0.43292829  0.08659467  0.62379036     0.36700
C4376       C  0.37161240  0.04777649  0.59800949     0.39900
N4377       N  0.48136607  0.04048368  0.56192292    -0.38100
N4378       N  0.44576737  0.03309943  0.60205157    -0.39700
N4379       N  0.44157384  0.12287760  0.54141934    -0.37500
N4380       N  0.40707826  0.11631413  0.58301470    -0.39900
N4381       N  0.39992668  0.05193316  0.55904960    -0.39600
N4382       N  0.35905922  0.04028146  0.59262738    -0.37300
N4383       N  0.40612075  0.07974423  0.66356736    -0.38300
N4384       N  0.44530421  0.09455217  0.62891537    -0.40000
C4385       C  0.55603418  0.05939671  0.43417117    -0.04900
C4386       C  0.56663663  0.07412411  0.42842043     0.09200
C4387       C  0.56569986  0.09071916  0.43772945    -0.02300
C4388       C  0.55453855  0.09241553  0.45301050    -0.00600
C4389       C  0.54372482  0.07777967  0.45854172    -0.04200
C4390       C  0.54430083  0.06134653  0.44894266     0.02800
C4391       C  0.57994166  0.07154624  0.41355629     0.09700
C4392       C  0.57634665  0.10596195  0.43164260     0.35600
C4393       C  0.53274416  0.04647789  0.45426163     0.39000
C4394       C  0.57419933  0.07015156  0.39544788    -0.04500
C4395       C  0.58672858  0.06592665  0.38177913     0.02600
C4396       C  0.60504523  0.06359706  0.38615543    -0.04100
C4397       C  0.61083685  0.06550222  0.40415772    -0.00400
C4398       C  0.59828790  0.06928712  0.41785310    -0.02900
C4399       C  0.55541128  0.07293653  0.39096266     0.36300
C4400       C  0.62967196  0.06310692  0.40866363     0.39900
C4401       C  0.58079684  0.06376730  0.36326887     0.39100
C4402       C  0.60412714  0.07038221  0.43649585     0.36000
C4403       C  0.55763197  0.04207478  0.42520190     0.36700
C4404       C  0.55415536  0.10917187  0.46309456     0.39900
N4405       N  0.57608265  0.06197253  0.34850275    -0.38100
N4406       N  0.54042107  0.07517517  0.38739203    -0.39700
N4407       N  0.64468573  0.06118894  0.41229940    -0.37500
N4408       N  0.60862430  0.07130785  0.45140732    -0.39900
N4409       N  0.58485567  0.11811593  0.42678681    -0.39600
N4410       N  0.55391738  0.12247090  0.47126279    -0.37300
N4411       N  0.52339623  0.03469044  0.45841509    -0.38300
N4412       N  0.55903286  0.02825832  0.41807433    -0.40000
C4413       C  0.60879466  0.06266801  0.58427543    -0.04900
C4414       C  0.59357123  0.07240209  0.59015439     0.09200
C4415       C  0.59258130  0.07844971  0.60817741    -0.02300
C4416       C  0.60667271  0.07460946  0.62034552    -0.00600
C4417       C  0.62191716  0.06486718  0.61446626    -0.04200
C4418       C  0.62289569  0.05884919  0.59639955     0.02800
C4419       C  0.57810754  0.07535668  0.57758481     0.09700
C4420       C  0.57679380  0.08819639  0.61426927     0.35600
C4421       C  0.63834227  0.04850431  0.59034167     0.39000
C4422       C  0.56417445  0.06246096  0.57663572    -0.04500
C4423       C  0.54992526  0.06476575  0.56430489     0.02600
C4424       C  0.54939570  0.08012588  0.55299543    -0.04100
C4425       C  0.56307122  0.09329259  0.55434941    -0.00400
C4426       C  0.57748560  0.09082341  0.56648753    -0.02900
C4427       C  0.56460816  0.04676361  0.58833855     0.36300
C4428       C  0.56215273  0.10945729  0.54335728     0.39900
C4429       C  0.53590232  0.05121534  0.56309741     0.39100
C4430       C  0.59176067  0.10411229  0.56752232     0.36000
C4431       C  0.60973980  0.05626923  0.56581041     0.36700
C4432       C  0.60492797  0.07959680  0.63918450     0.39900
N4433       N  0.52469606  0.04041588  0.56218070    -0.38100
N4434       N  0.56499505  0.03429660  0.59774528    -0.39700
N4435       N  0.56131138  0.12237277  0.53461115    -0.37500
N4436       N  0.60318701  0.11468806  0.56834781    -0.39900
N4437       N  0.56415496  0.09594896  0.61907414    -0.39600
N4438       N  0.60348124  0.08338921  0.65425955    -0.37300
N4439       N  0.65063660  0.04015709  0.58562719    -0.38300
N4440       N  0.61046713  0.05114988  0.55108221    -0.40000
loop_ 
_geom_bond_atom_site_label_1 
_geom_bond_atom_site_label_2 
_geom_bond_distance 
_geom_bond_site_symmetry_2 
_ccdc_geom_bond_type 
N1            C6   1.353       .  A
N1            C5   1.352       .  A
N1           H33   1.040       .  S
N2            C9   1.349       .  A
N2           C10   1.349       .  A
N3            C8   1.352       .  A
N3            C7   1.355       .  A
N3           H34   1.040       .  S
N4           C11   1.352       .  A
N4           C12   1.351       .  A
C5           C13   1.386       .  A
C5           C21   1.413       .  A
C6           C22   1.416       .  A
C6           C14   1.388       .  A
C7           C15   1.386       .  A
C7           C24   1.415       .  A
C8           C23   1.416       .  A
C8           C16   1.388       .  A
C9           C21   1.409       .  A
C9           C17   1.387       .  A
C10          C24   1.408       .  A
C10          C18   1.386       .  A
C11          C19   1.385       .  A
C11          C22   1.413       .  A
C12          C20   1.386       .  A
C12          C23   1.414       .  A
C13          C14   1.377       .  A
C13          H25   1.082       .  S
C14          H26   1.082       .  S
C15          C16   1.377       .  A
C15          H27   1.082       .  S
C16          H28   1.082       .  S
C17          C18   1.370       .  A
C17          H29   1.082       .  S
C18          H30   1.082       .  S
C19          C20   1.375       .  A
C19          H31   1.082       .  S
C20          H32   1.082       .  S
C21        C4389   1.489       .  S
C22        C4424   1.498       .  S
C23        C4368   1.496       .  S
C24        C4340   1.494       .  S
N35          C40   1.355       .  A
N35          C39   1.352       .  A
N35          H67   1.040       .  S
N36          C43   1.350       .  A
N36          C44   1.353       .  A
N37          C42   1.353       .  A
N37          C41   1.354       .  A
N37          H68   1.039       .  S
N38          C45   1.351       .  A
N38          C46   1.348       .  A
C39          C47   1.388       .  A
C39          C55   1.416       .  A
C40          C56   1.415       .  A
C40          C48   1.386       .  A
C41          C49   1.387       .  A
C41          C58   1.414       .  A
C42          C57   1.415       .  A
C42          C50   1.387       .  A
C43          C55   1.414       .  A
C43          C51   1.387       .  A
C44          C58   1.413       .  A
C44          C52   1.385       .  A
C45          C53   1.385       .  A
C45          C56   1.409       .  A
C46          C54   1.387       .  A
C46          C57   1.411       .  A
C47          C48   1.376       .  A
C47          H59   1.082       .  S
C48          H60   1.082       .  S
C49          C50   1.375       .  A
C49          H61   1.082       .  S
C50          H62   1.082       .  S
C51          C52   1.376       .  A
C51          H63   1.082       .  S
C52          H64   1.082       .  S
C53          C54   1.372       .  A
C53          H65   1.082       .  S
C54          H66   1.082       .  S
C55        C4277   1.494       .  S
C56        C4312   1.498       .  S
C57        C4256   1.491       .  S
C58        C4228   1.499       .  S
N69          C74   1.352       .  A
N69          C73   1.351       .  A
N69         H101   1.038       .  S
N70          C77   1.350       .  A
N70          C78   1.351       .  A
N71          C76   1.350       .  A
N71          C75   1.352       .  A
N71         H102   1.035       .  S
N72          C79   1.351       .  A
N72          C80   1.350       .  A
C73          C81   1.387       .  A
C73          C89   1.412       .  A
C74          C90   1.413       .  A
C74          C82   1.386       .  A
C75          C83   1.387       .  A
C75          C92   1.415       .  A
C76          C91   1.412       .  A
C76          C84   1.387       .  A
C77          C89   1.412       .  A
C77          C85   1.386       .  A
C78          C92   1.414       .  A
C78          C86   1.387       .  A
C79          C87   1.385       .  A
C79          C90   1.409       .  A
C80          C88   1.388       .  A
C80          C91   1.413       .  A
C81          C82   1.376       .  A
C81          H93   1.082       .  S
C82          H94   1.082       .  S
C83          C84   1.377       .  A
C83          H95   1.082       .  S
C84          H96   1.082       .  S
C85          C86   1.372       .  A
C85          H97   1.082       .  S
C86          H98   1.082       .  S
C87          C88   1.371       .  A
C87          H99   1.082       .  S
C88         H100   1.082       .  S
C89        C4165   1.489       .  S
C90        C4193   1.493       .  S
C91        C4144   1.486       .  S
C92        C4116   1.493       .  S
N103        C108   1.352       .  A
N103        C107   1.353       .  A
N103        H135   1.038       .  S
N104        C111   1.352       .  A
N104        C112   1.351       .  A
N105        C110   1.356       .  A
N105        C109   1.354       .  A
N105        H136   1.038       .  S
N106        C113   1.350       .  A
N106        C114   1.351       .  A
C107        C115   1.387       .  A
C107        C123   1.413       .  A
C108        C124   1.412       .  A
C108        C116   1.387       .  A
C109        C117   1.387       .  A
C109        C126   1.417       .  A
C110        C125   1.418       .  A
C110        C118   1.387       .  A
C111        C123   1.413       .  A
C111        C119   1.385       .  A
C112        C126   1.414       .  A
C112        C120   1.387       .  A
C113        C121   1.387       .  A
C113        C124   1.412       .  A
C114        C122   1.385       .  A
C114        C125   1.412       .  A
C115        C116   1.373       .  A
C115        H127   1.083       .  S
C116        H128   1.082       .  S
C117        C118   1.373       .  A
C117        H129   1.082       .  S
C118        H130   1.082       .  S
C119        C120   1.373       .  A
C119        H131   1.082       .  S
C120        H132   1.082       .  S
C121        C122   1.372       .  A
C121        H133   1.083       .  S
C122        H134   1.082       .  S
C123       C4004   1.495       .  S
C124       C4053   1.488       .  S
C125       C4081   1.499       .  S
C126       C4025   1.495       .  S
N137        C142   1.353       .  A
N137        C141   1.353       .  A
N137        H169   1.030       .  S
N138        C145   1.349       .  A
N138        C146   1.348       .  A
N139        C144   1.353       .  A
N139        C143   1.352       .  A
N139        H170   1.029       .  S
N140        C147   1.349       .  A
N140        C148   1.350       .  A
C141        C149   1.386       .  A
C141        C157   1.411       .  A
C142        C158   1.413       .  A
C142        C150   1.387       .  A
C143        C151   1.387       .  A
C143        C160   1.410       .  A
C144        C159   1.409       .  A
C144        C152   1.386       .  A
C145        C157   1.409       .  A
C145        C153   1.387       .  A
C146        C160   1.406       .  A
C146        C154   1.385       .  A
C147        C155   1.387       .  A
C147        C158   1.412       .  A
C148        C156   1.385       .  A
C148        C159   1.409       .  A
C149        C150   1.375       .  A
C149        H161   1.082       .  S
C150        H162   1.082       .  S
C151        C152   1.370       .  A
C151        H163   1.082       .  S
C152        H164   1.082       .  S
C153        C154   1.372       .  A
C153        H165   1.083       .  S
C154        H166   1.082       .  S
C155        C156   1.373       .  A
C155        H167   1.082       .  S
C156        H168   1.082       .  S
C157       C3920   1.489       .  S
C158       C3976   1.492       .  S
C159       C3948   1.490       .  S
C160       C3885   1.484       .  S
N171        C176   1.352       .  A
N171        C175   1.351       .  A
N171        H203   1.037       .  S
N172        C179   1.349       .  A
N172        C180   1.350       .  A
N173        C178   1.349       .  A
N173        C177   1.352       .  A
N173        H204   1.036       .  S
N174        C181   1.350       .  A
N174        C182   1.349       .  A
C175        C183   1.387       .  A
C175        C191   1.413       .  A
C176        C192   1.412       .  A
C176        C184   1.386       .  A
C177        C185   1.386       .  A
C177        C194   1.412       .  A
C178        C193   1.411       .  A
C178        C186   1.387       .  A
C179        C191   1.410       .  A
C179        C187   1.386       .  A
C180        C194   1.412       .  A
C180        C188   1.386       .  A
C181        C189   1.386       .  A
C181        C192   1.410       .  A
C182        C190   1.386       .  A
C182        C193   1.409       .  A
C183        C184   1.376       .  A
C183        H195   1.082       .  S
C184        H196   1.082       .  S
C185        C186   1.376       .  A
C185        H197   1.082       .  S
C186        H198   1.082       .  S
C187        C188   1.373       .  A
C187        H199   1.082       .  S
C188        H200   1.082       .  S
C189        C190   1.371       .  A
C189        H201   1.082       .  S
C190        H202   1.082       .  S
C191       C3857   1.487       .  S
C192       C3829   1.491       .  S
C193       C3773   1.483       .  S
C194       C3801   1.494       .  S
N205        C210   1.350   1_655  A
N205        C209   1.352       .  A
N205        H237   1.042       .  S
N206        C213   1.350   1_556  A
N206        C214   1.348       .  A
N207        C212   1.354       .  A
N207        C211   1.353   1_455  A
N207        H238   1.037       .  S
N208        C215   1.349       .  A
N208        C216   1.349   1_554  A
C209        C217   1.387       .  A
C209        C225   1.408       .  A
C210        C226   1.411       .  A
C210        C218   1.386       .  A
C211        C219   1.390       .  A
C211        C228   1.420       .  A
C212        C227   1.413       .  A
C212        C220   1.385       .  A
C213        C225   1.408       .  A
C213        C221   1.384       .  A
C214        C228   1.416       .  A
C214        C222   1.389       .  A
C215        C223   1.387       .  A
C215        C226   1.413       .  A
C216        C224   1.383       .  A
C216        C227   1.405       .  A
C217        C218   1.374   1_655  A
C217        H229   1.082       .  S
C218        H230   1.082       .  S
C219        C220   1.374   1_655  A
C219        H231   1.082       .  S
C220        H232   1.082       .  S
C221        C222   1.373   1_554  A
C221        H233   1.082       .  S
C222        H234   1.082       .  S
C223        C224   1.373   1_554  A
C223        H235   1.082       .  S
C224        H236   1.082       .  S
C225       C3689   1.491       .  S
C226       C3745   1.529       .  S
C227       C3717   1.492       .  S
C228       C3661   1.490       .  S
N239        C244   1.357       .  A
N239        C243   1.358   1_556  A
N239        H271   1.039       .  S
N240        C247   1.345       .  A
N240        C248   1.350       .  A
N241        C246   1.351       .  A
N241        C245   1.351   1_556  A
N241        H272   1.045       .  S
N242        C249   1.343       .  A
N242        C250   1.350       .  A
C243        C251   1.387       .  A
C243        C259   1.423       .  A
C244        C260   1.421       .  A
C244        C252   1.387       .  A
C245        C253   1.384   1_545  A
C245        C262   1.398       .  A
C246        C261   1.402       .  A
C246        C254   1.386   1_545  A
C247        C259   1.413       .  A
C247        C255   1.390       .  A
C248        C262   1.407   1_565  A
C248        C256   1.382       .  A
C249        C257   1.390       .  A
C249        C260   1.410       .  A
C250        C258   1.383       .  A
C250        C261   1.408   1_565  A
C251        C252   1.376   1_554  A
C251        H263   1.082       .  S
C252        H264   1.083       .  S
C253        C254   1.368   1_554  A
C253        H265   1.083       .  S
C254        H266   1.083       .  S
C255        C256   1.377       .  A
C255        H267   1.082       .  S
C256        H268   1.082       .  S
C257        C258   1.378       .  A
C257        H269   1.082       .  S
C258        H270   1.083       .  S
C259       C3605   1.494       .  S
C260       C3549   1.489       .  S
C261       C3577   1.489       .  S
C262       C3633   1.486       .  S
N273        C278   1.353   1_554  A
N273        C277   1.354       .  A
N273        H305   1.037       .  S
N274        C281   1.352   1_455  A
N274        C282   1.351       .  A
N275        C280   1.354   1_554  A
N275        C279   1.351       .  A
N275        H306   1.038       .  S
N276        C283   1.351   1_455  A
N276        C284   1.352       .  A
C277        C285   1.386       .  A
C277        C293   1.416       .  A
C278        C294   1.417       .  A
C278        C286   1.388       .  A
C279        C287   1.386       .  A
C279        C296   1.412       .  A
C280        C295   1.414       .  A
C280        C288   1.387       .  A
C281        C293   1.413       .  A
C281        C289   1.386       .  A
C282        C296   1.413       .  A
C282        C290   1.387       .  A
C283        C291   1.387       .  A
C283        C294   1.415       .  A
C284        C292   1.385       .  A
C284        C295   1.413       .  A
C285        C286   1.376   1_554  A
C285        H297   1.083       .  S
C286        H298   1.082       .  S
C287        C288   1.376   1_554  A
C287        H299   1.082       .  S
C288        H300   1.082       .  S
C289        C290   1.373   1_655  A
C289        H301   1.082       .  S
C290        H302   1.083       .  S
C291        C292   1.374   1_655  A
C291        H303   1.082       .  S
C292        H304   1.082       .  S
C293       C3493   1.496       .  S
C294       C3437   1.496       .  S
C295       C3465   1.500       .  S
C296       C3521   1.491       .  S
N307        C312   1.353   1_565  A
N307        C311   1.351   1_566  A
N307        H339   1.038       .  S
N308        C315   1.352       .  A
N308        C316   1.353       .  A
N309        C314   1.352       .  A
N309        C313   1.352   1_556  A
N309        H340   1.039       .  S
N310        C317   1.351       .  A
N310        C318   1.350       .  A
C311        C319   1.387       .  A
C311        C327   1.415   1_545  A
C312        C328   1.415   1_545  A
C312        C320   1.386       .  A
C313        C321   1.387       .  A
C313        C330   1.416       .  A
C314        C329   1.414       .  A
C314        C322   1.387       .  A
C315        C327   1.415       .  A
C315        C323   1.386       .  A
C316        C330   1.417       .  A
C316        C324   1.387       .  A
C317        C325   1.385       .  A
C317        C328   1.411       .  A
C318        C326   1.387       .  A
C318        C329   1.411       .  A
C319        C320   1.378   1_554  A
C319        H331   1.082       .  S
C320        H332   1.082       .  S
C321        C322   1.379   1_554  A
C321        H333   1.082       .  S
C322        H334   1.082       .  S
C323        C324   1.374       .  A
C323        H335   1.082       .  S
C324        H336   1.082       .  S
C325        C326   1.372       .  A
C325        H337   1.082       .  S
C326        H338   1.082       .  S
C327       C3409   1.495   1_565  S
C328       C3381   1.497   1_565  S
C329       C3325   1.492       .  S
C330       C3353   1.501       .  S
N341        C346   1.353       .  A
N341        C345   1.353       .  A
N341        H373   1.039       .  S
N342        C349   1.350   1_565  A
N342        C350   1.351   1_665  A
N343        C348   1.351       .  A
N343        C347   1.352       .  A
N343        H374   1.039       .  S
N344        C351   1.350       .  A
N344        C352   1.349   1_655  A
C345        C353   1.387       .  A
C345        C361   1.414   1_565  A
C346        C362   1.414       .  A
C346        C354   1.387       .  A
C347        C355   1.387       .  A
C347        C364   1.412   1_565  A
C348        C363   1.411       .  A
C348        C356   1.387       .  A
C349        C361   1.413       .  A
C349        C357   1.387       .  A
C350        C364   1.411       .  A
C350        C358   1.385       .  A
C351        C359   1.386       .  A
C351        C362   1.411       .  A
C352        C360   1.386       .  A
C352        C363   1.409       .  A
C353        C354   1.375       .  A
C353        H365   1.082       .  S
C354        H366   1.082       .  S
C355        C356   1.371       .  A
C355        H367   1.082       .  S
C356        H368   1.082       .  S
C357        C358   1.374   1_655  A
C357        H369   1.082       .  S
C358        H370   1.082       .  S
C359        C360   1.373   1_655  A
C359        H371   1.082       .  S
C360        H372   1.082       .  S
C361       C3241   1.492       .  S
C362       C3213   1.494       .  S
C363       C3269   1.487       .  S
C364       C3297   1.491       .  S
N375        C380   1.351       .  A
N375        C379   1.352       .  A
N375        H407   1.038       .  S
N376        C383   1.350   1_655  A
N376        C384   1.349       .  A
N377        C382   1.353       .  A
N377        C381   1.351       .  A
N377        H408   1.038       .  S
N378        C385   1.347   1_665  A
N378        C386   1.348   1_565  A
C379        C387   1.386       .  A
C379        C395   1.412       .  A
C380        C396   1.412       .  A
C380        C388   1.387       .  A
C381        C389   1.388       .  A
C381        C398   1.414       .  A
C382        C397   1.414   1_565  A
C382        C390   1.387       .  A
C383        C395   1.409       .  A
C383        C391   1.385       .  A
C384        C398   1.411       .  A
C384        C392   1.387       .  A
C385        C393   1.387       .  A
C385        C396   1.407   1_545  A
C386        C394   1.386       .  A
C386        C397   1.407       .  A
C387        C388   1.375       .  A
C387        H399   1.082       .  S
C388        H400   1.082       .  S
C389        C390   1.376       .  A
C389        H401   1.082       .  S
C390        H402   1.083       .  S
C391        C392   1.371   1_455  A
C391        H403   1.082       .  S
C392        H404   1.082       .  S
C393        C394   1.370   1_455  A
C393        H405   1.083       .  S
C394        H406   1.082       .  S
C395       C3129   1.491       .  S
C396       C3185   1.482   1_565  S
C397       C3157   1.489       .  S
C398       C3101   1.487       .  S
C409        N410   1.363       .  A
C409        N414   1.354       .  A
C409       C3045   1.478       .  S
N410        C411   1.364       .  A
C411        N412   1.361       .  A
C411       C3073   1.499       .  S
N412        C413   1.356       .  A
C413        N414   1.351       .  A
C413       C4200   1.474       .  S
C415        N416   1.365       .  A
C415        N420   1.363       .  A
C415       C3017   1.497       .  S
N416        C417   1.361       .  A
C417        N418   1.354       .  A
C417       C3080   1.485       .  S
N418        C419   1.352       .  A
C419        N420   1.359       .  A
C419       C4417   1.482       .  S
C421        N422   1.358       .  A
C421        N426   1.359       .  A
C421       C2961   1.477       .  S
N422        C423   1.356       .  A
C423        N424   1.357       .  A
C423       C4088   1.483       .  S
N424        C425   1.359       .  A
C425        N426   1.360       .  A
C425       C2989   1.489       .  S
C427        N428   1.360       .  A
C427        N432   1.361       .  A
C427       C2933   1.486       .  S
N428        C429   1.360       .  A
C429        N430   1.359       .  A
C429       C2996   1.484       .  S
N430        C431   1.356       .  A
C431        N432   1.357       .  A
C431       C4305   1.481       .  S
C433        N434   1.362       .  A
C433        N438   1.359       .  A
C433       C2877   1.479       .  S
N434        C435   1.361       .  A
C435        N436   1.356       .  A
C435       C2905   1.489       .  S
N436        C437   1.352       .  A
C437        N438   1.356       .  A
C437       C3864   1.473       .  S
C439        N440   1.358       .  A
C439        N444   1.359       .  A
C439       C2856   1.490       .  S
N440        C441   1.356       .  A
C441        N442   1.356       .  A
C441       C2912   1.483       .  S
N442        C443   1.356       .  A
C443        N444   1.356       .  A
C443       C3969   1.483       .  S
C445        N446   1.357       .  A
C445        N450   1.361       .  A
C445       C2793   1.483       .  S
N446        C447   1.352       .  A
C447        N448   1.352       .  A
C447       C4060   1.470       .  S
N448        C449   1.357       .  A
C449        N450   1.362       .  A
C449       C2821   1.485       .  S
C451        N452   1.356       .  A
C451        N456   1.361       .  A
C451       C2765   1.479       .  S
N452        C453   1.355       .  A
C453        N454   1.354       .  A
C453       C4249   1.478       .  S
N454        C455   1.357       .  A
C455        N456   1.360       .  A
C455       C2828   1.482       .  S
C457        N458   1.355       .  A
C457        N462   1.362       .  A
C457       C2709   1.481       .  S
N458        C459   1.352       .  A
C459        N460   1.354       .  A
C459       C4137   1.470       .  S
N460        C461   1.358       .  A
C461        N462   1.362       .  A
C461       C2737   1.488       .  S
C463        N464   1.356       .  A
C463        N468   1.360       .  A
C463       C2688   1.474       .  S
N464        C465   1.354       .  A
C465        N466   1.355       .  A
C465       C4396   1.473       .  S
N466        C467   1.359       .  A
C467        N468   1.360       .  A
C467       C2744   1.494       .  S
C469        N470   1.359       .  A
C469        N474   1.362       .  A
C469       C2632   1.486       .  S
N470        C471   1.356       .  A
C471        N472   1.355       .  A
C471       C4032   1.479       .  S
N472        C473   1.359       .  A
C473        N474   1.360       .  A
C473       C2653   1.488       .  S
C475        N476   1.358       .  A
C475        N480   1.359       .  A
C475       C2597   1.476       .  S
N476        C477   1.355       .  A
C477        N478   1.357       .  A
C477       C4284   1.477       .  S
N478        C479   1.358       .  A
C479        N480   1.358       .  A
C479       C2660   1.491       .  S
C481        N482   1.357       .  A
C481        N486   1.357       .  A
C481       C2541   1.481       .  S
N482        C483   1.354       .  A
C483        N484   1.355       .  A
C483       C4172   1.469       .  S
N484        C485   1.357       .  A
C485        N486   1.355       .  A
C485       C2569   1.482       .  S
C487        N488   1.362       .  A
C487        N492   1.360       .  A
C487       C2513   1.486       .  S
N488        C489   1.358       .  A
C489        N490   1.355       .  A
C489       C4361   1.484       .  S
N490        C491   1.358       .  A
C491        N492   1.358       .  A
C491       C2576   1.483       .  S
C493        N494   1.365       .  A
C493        N498   1.358       .  A
C493       C2457   1.491       .  S
N494        C495   1.365       .  A
C495        N496   1.359       .  A
C495       C2485   1.503       .  S
N496        C497   1.356       .  A
C497        N498   1.355       .  A
C497       C3808   1.482       .  S
C499        N500   1.362       .  A
C499        N504   1.353       .  A
C499       C2436   1.483       .  S
N500        C501   1.364       .  A
C501        N502   1.362       .  A
C501       C2492   1.490       .  S
N502        C503   1.359       .  A
C503        N504   1.351       .  A
C503       C3941   1.484       .  S
C505        N506   1.358       .  A
C505        N510   1.362       .  A
C505       C2373   1.483       .  S
N506        C507   1.352       .  A
C507        N508   1.351       .  A
C507       C3836   1.470       .  S
N508        C509   1.355       .  A
C509        N510   1.359       .  A
C509       C2401   1.479       .  S
C511        N512   1.356       .  A
C511        N516   1.358       .  A
C511       C2345   1.476       .  S
N512        C513   1.354       .  A
C513        N514   1.354       .  A
C513       C3913   1.477       .  S
N514        C515   1.357       .  A
C515        N516   1.358       .  A
C515       C2408   1.483       .  S
C517        N518   1.367       .  A
C517        N522   1.356       .  A
C517       C2289   1.487       .  S
N518        C519   1.366       .  A
C519        N520   1.358       .  A
C519       C2317   1.501       .  S
N520        C521   1.354       .  A
C521        N522   1.352       .  A
C521       C4109   1.477       .  S
C523        N524   1.363       .  A
C523        N528   1.364       .  A
C523       C2261   1.504       .  S
N524        C525   1.358       .  A
C525        N526   1.356       .  A
C525       C4333   1.484       .  S
N526        C527   1.358       .  A
C527        N528   1.363       .  A
C527       C2324   1.491       .  S
C529        N530   1.364       .  A
C529        N534   1.354       .  A
C529       C2212   1.484       .  S
N530        C531   1.366       .  A
C531        N532   1.361       .  A
C531       C2233   1.501       .  S
N532        C533   1.355       .  A
C533        N534   1.351       .  A
C533       C3997   1.474       .  S
C535        N536   1.360       .  A
C535        N540   1.363       .  A
C535       C2184   1.486       .  S
N536        C537   1.357       .  A
C537        N538   1.357       .  A
C537       C4221   1.484       .  S
N538        C539   1.359       .  A
C539        N540   1.361       .  A
C539       C2240   1.484       .  S
C541        N542   1.356       .  A
C541        N546   1.361       .  A
C541       C2121   1.479       .  S
N542        C543   1.351       .  A
C543        N544   1.352       .  A
C543       C3780   1.467       .  S
N544        C545   1.356       .  A
C545        N546   1.361       .  A
C545       C2149   1.481       .  S
C547        N548   1.361       .  A
C547        N552   1.357       .  A
C547       C2093   1.478       .  S
N548        C549   1.362       .  A
C549        N550   1.357       .  A
C549       C2156   1.495       .  S
N550        C551   1.352       .  A
C551        N552   1.354       .  A
C551       C3892   1.471       .  S
C553        N554   1.360       .  A
C553        N558   1.359       .  A
C553       C2037   1.482       .  S
N554        C555   1.356       .  A
C555        N556   1.353       .  A
C555       C3528   1.474       .  S
N556        C557   1.355       .  A
C557        N558   1.357       .  A
C557       C2065   1.480       .  S
C559        N560   1.356       .  A
C559        N564   1.367       .  A
C559       C2009   1.499       .  S
N560        C561   1.353       .  A
C561        N562   1.350       .  A
C561       C3752   1.485       .  S
N562        C563   1.354       .  A
C563        N564   1.366       .  A
C563       C2072   1.494       .  S
C565        N566   1.361       .  A
C565        N570   1.359       .  A
C565       C1953   1.485       .  S
N566        C567   1.360       .  A
C567        N568   1.361       .  A
C567       C1981   1.492       .  S
N568        C569   1.358       .  A
C569        N570   1.356       .  A
C569       C3416   1.482       .  S
C571        N572   1.367       .  A
C571        N576   1.361       .  A
C571       C1925   1.507       .  S
N572        C573   1.366       .  A
C573        N574   1.358       .  A
C573       C1988   1.496       .  S
N574        C575   1.354       .  A
C575        N576   1.356       .  A
C575       C3640   1.478       .  S
C577        N578   1.364       .  A
C577        N582   1.359       .  A
C577       C1876   1.494       .  S
N578        C579   1.364       .  A
C579        N580   1.363       .  A
C579       C1897   1.491       .  S
N580        C581   1.360       .  A
C581        N582   1.356       .  A
C581       C3388   1.491       .  S
C583        N584   1.367       .  A
C583        N588   1.357       .  A
C583       C1841   1.489       .  S
N584        C585   1.367       .  A
C585        N586   1.359       .  A
C585       C1904   1.499       .  S
N586        C587   1.352       .  A
C587        N588   1.353       .  A
C587       C3584   1.474       .  S
C589        N590   1.357       .  A
C589        N594   1.363       .  A
C589       C1785   1.485       .  S
N590        C591   1.355       .  A
C591        N592   1.355       .  A
C591       C3360   1.480       .  S
N592        C593   1.359       .  A
C593        N594   1.364       .  A
C593       C1813   1.499       .  S
C595        N596   1.359       .  A
C595        N600   1.364       .  A
C595       C1764   1.497       .  S
N596        C597   1.355       .  A
C597        N598   1.354       .  A
C597       C3612   1.477       .  S
N598        C599   1.357       .  A
C599        N600   1.362       .  A
C599       C1820   1.489       .  S
C601        N602   1.359       .  A
C601        N606   1.363       .  A
C601       C1701   1.485       .  S
N602        C603   1.354       .  A
C603        N604   1.353       .  A
C603       C3500   1.473       .  S
N604        C605   1.357       .  A
C605        N606   1.362       .  A
C605       C1729   1.499       .  S
C607        N608   1.360       .  A
C607        N612   1.362       .  A
C607       C1673   1.482       .  S
N608        C609   1.355       .  A
C609        N610   1.353       .  A
C609       C3696   1.477       .  S
N610        C611   1.355       .  A
C611        N612   1.360       .  A
C611       C1736   1.484       .  S
C613        N614   1.354       .  A
C613        N618   1.362       .  A
C613       C1617   1.491       .  S
N614        C615   1.349       .  A
C615        N616   1.352       .  A
C615       C3164   1.466       .  S
N616        C617   1.357       .  A
C617        N618   1.360       .  A
C617       C1645   1.483       .  S
C619        N620   1.358       .  A
C619        N624   1.359       .  A
C619       C1589   1.477       .  S
N620        C621   1.355       .  A
C621        N622   1.356       .  A
C621       C3248   1.477       .  S
N622        C623   1.360       .  A
C623        N624   1.361       .  A
C623       C1652   1.491       .  S
C625        N626   1.366       .  A
C625        N630   1.361       .  A
C625       C1533   1.497       .  S
N626        C627   1.364       .  A
C627        N628   1.354       .  A
C627       C1561   1.489       .  S
N628        C629   1.350       .  A
C629        N630   1.355       .  A
C629       C3136   1.473       .  S
C631        N632   1.355       .  A
C631        N636   1.357       .  A
C631       C1505   1.479       .  S
N632        C633   1.353       .  A
C633        N634   1.358       .  A
C633       C3276   1.471       .  S
N634        C635   1.360       .  A
C635        N636   1.356       .  A
C635       C1568   1.487       .  S
C637        N638   1.358       .  A
C637        N642   1.358       .  A
C637       C1449   1.477       .  S
N638        C639   1.355       .  A
C639        N640   1.357       .  A
C639       C3444   1.485       .  S
N640        C641   1.358       .  A
C641        N642   1.355       .  A
C641       C1484   1.485       .  S
C643        N644   1.355       .  A
C643        N648   1.360       .  A
C643       C1421   1.480       .  S
N644        C645   1.352       .  A
C645        N646   1.356       .  A
C645       C1477   1.479       .  S
N646        C647   1.355       .  A
C647        N648   1.357       .  A
C647       C3668   1.475       .  S
C649        N650   1.358       .  A
C649        N654   1.360       .  A
C649       C1372   1.483       .  S
N650        C651   1.354       .  A
C651        N652   1.355       .  A
C651       C3108   1.472       .  S
N652        C653   1.356       .  A
C653        N654   1.357       .  A
C653       C1393   1.480       .  S
C655        N656   1.361       .  A
C655        N660   1.358       .  A
C655       C1337   1.489       .  S
N656        C657   1.360       .  A
C657        N658   1.356       .  A
C657       C1400   1.488       .  S
N658        C659   1.354       .  A
C659        N660   1.356       .  A
C659       C3220   1.478       .  S
C661        N662   1.359       .  A
C661        N666   1.359       .  A
C661       C1281   1.487       .  S
N662        C663   1.356       .  A
C663        N664   1.359       .  A
C663       C3332   1.483       .  S
N664        C665   1.359       .  A
C665        N666   1.358       .  A
C665       C1309   1.484       .  S
C667        N668   1.364       .  A
C667        N672   1.361       .  A
C667       C1253   1.506       .  S
N668        C669   1.362       .  A
C669        N670   1.358       .  A
C669       C1316   1.498       .  S
N670        C671   1.353       .  A
C671        N672   1.355       .  A
C671       C3556   1.477       .  S
O673       Mg675   2.105       .  S
O673       Mg681   2.146       .  S
O673        C708   1.234       .  S
C674        H713   1.081       .  S
C674        O687   1.236       .  S
C674        O711   1.270       .  A
Mg675       O704   2.153       .  S
Mg675       O719   2.307       .  S
Mg675       O715   2.205       .  S
Mg675       O686   2.299       .  S
O676       Mg718   2.149       .  S
O676       Mg701   2.140       .  S
O676        C697   1.235       .  S
O677        C708   1.267       .  A
O677       Mg701   2.282       .  S
C678       C1512   1.486       .  S
C678        O680   1.271       .  A
C678        O692   1.275       .  A
O679        C707   1.268       .  A
O679       Mg681   2.292       .  S
O680       Mg712   2.256       .  S
Mg681       O687   2.138       .  S
Mg681       O695   2.263       .  S
Mg681       O683   2.283       .  S
C682       C2940   1.470       .  S
C682        O720   1.269       .  A
C682        O688   1.273       .  A
O683        C690   1.273       .  A
H684        C697   1.081       .  S
C685        H710   1.081       .  S
C685        O699   1.236       .  S
C685        O700   1.270       .  A
O686        C709   1.271       .  A
O687       Mg701   2.158       .  S
O688       Mg718   2.300       .  S
C689       C1225   1.471       .  S
C689        O702   1.270       .  A
C689        O694   1.270       .  A
C690       C2380   1.476       .  S
C690        O717   1.270       .  A
Mg691       O698   2.132       .  S
Mg691       O699   2.150       .  S
Mg691       O692   2.309       .  S
Mg691       O693   2.302       .  S
Mg691       O720   2.244       .  S
O693        C697   1.270       .  A
O694       Mg701   2.273       .  S
O695        C714   1.272       .  A
O696        C716   1.272       .  A
O696       Mg712   2.286       .  S
O698       Mg712   2.149       .  S
O698        C709   1.237       .  S
O699       Mg718   2.142       .  S
O700       Mg712   2.299       .  S
Mg701       O717   2.241       .  S
O702       Mg718   2.264       .  S
H703        C708   1.081       .  S
O704       Mg712   2.137       .  S
O704        C707   1.234       .  S
H705        C707   1.081       .  S
H706        C709   1.081       .  S
O711       Mg718   2.301       .  S
C714       C1288   1.491       .  S
C714        O719   1.275       .  A
O715        C716   1.266       .  A
C716       C2548   1.467       .  S
O721       Mg723   2.126       .  S
O721       Mg729   2.162       .  S
O721        C756   1.235       .  S
C722        H761   1.081       .  S
C722        O735   1.235       .  S
C722        O759   1.268       .  A
Mg723       O752   2.151       .  S
Mg723       O767   2.294       .  S
Mg723       O763   2.236       .  S
Mg723       O734   2.303       .  S
O724       Mg766   2.168       .  S
O724       Mg749   2.137       .  S
O724        C745   1.236       .  S
O725        C756   1.268       .  A
O725       Mg749   2.290       .  S
C726       C2884   1.493       .  S
C726        O728   1.274       .  A
C726        O740   1.276       .  A
O727        C755   1.268       .  A
O727       Mg729   2.294       .  S
O728       Mg760   2.274       .  S
Mg729       O735   2.131       .  S
Mg729       O743   2.252       .  S
Mg729       O731   2.280       .  S
C730       C1260   1.495       .  S
C730        O768   1.274       .  A
C730        O736   1.276       .  A
O731        C738   1.271       .  A
H732        C745   1.081       .  S
C733        H758   1.081       .  S
C733        O747   1.236       .  S
C733        O748   1.270       .  A
O734        C757   1.271       .  A
O735       Mg749   2.159       .  S
O736       Mg766   2.306       .  S
C737       C3052   1.481       .  S
C737        O750   1.275       .  A
C737        O742   1.270       .  A
C738       C1344   1.480       .  S
C738        O765   1.270       .  A
Mg739       O746   2.147       .  S
Mg739       O747   2.159       .  S
Mg739       O740   2.312       .  S
Mg739       O741   2.293       .  S
Mg739       O768   2.269       .  S
O741        C745   1.269       .  A
O742       Mg749   2.265       .  S
O743        C762   1.270       .  A
O744        C764   1.275       .  A
O744       Mg760   2.301       .  S
O746       Mg760   2.148       .  S
O746        C757   1.236       .  S
O747       Mg766   2.148       .  S
O748       Mg760   2.297       .  S
Mg749       O765   2.247       .  S
O750       Mg766   2.289       .  S
H751        C756   1.081       .  S
O752       Mg760   2.147       .  S
O752        C755   1.234       .  S
H753        C755   1.081       .  S
H754        C757   1.081       .  S
O759       Mg766   2.290       .  S
C762       C2968   1.477       .  S
C762        O767   1.273       .  A
O763        C764   1.269       .  A
C764       C1428   1.489       .  S
O769       Mg771   2.141       .  S
O769       Mg777   2.158       .  S
O769        C804   1.236       .  S
C770        H809   1.081       .  S
C770        O783   1.236       .  S
C770        O807   1.270       .  A
Mg771       O800   2.145       .  S
Mg771       O815   2.275       .  S
Mg771       O811   2.258       .  S
Mg771       O782   2.295       .  S
O772       Mg814   2.142       .  S
O772       Mg797   2.122       .  S
O772        C793   1.236       .  S
O773        C804   1.270       .  A
O773       Mg797   2.301       .  S
C774       C2849   1.475       .  S
C774        O776   1.270       .  A
C774        O788   1.273       .  A
O775        C803   1.269       .  A
O775       Mg777   2.293       .  S
O776       Mg808   2.242       .  S
Mg777       O783   2.135       .  S
Mg777       O791   2.247       .  S
Mg777       O779   2.288       .  S
C778       C1680   1.482       .  S
C778        O816   1.271       .  A
C778        O784   1.272       .  A
O779        C786   1.272       .  A
H780        C793   1.081       .  S
C781        H806   1.081       .  S
C781        O795   1.236       .  S
C781        O796   1.270       .  A
O782        C805   1.268       .  A
O783       Mg797   2.144       .  S
O784       Mg814   2.274       .  S
C785       C2800   1.500       .  S
C785        O798   1.272       .  A
C785        O790   1.274       .  A
C786       C1365   1.474       .  S
C786        O813   1.269       .  A
Mg787       O794   2.135       .  S
Mg787       O795   2.158       .  S
Mg787       O788   2.284       .  S
Mg787       O789   2.294       .  S
Mg787       O816   2.265       .  S
O789        C793   1.270       .  A
O790       Mg797   2.301       .  S
O791        C810   1.270       .  A
O792        C812   1.275       .  A
O792       Mg808   2.309       .  S
O794       Mg808   2.151       .  S
O794        C805   1.235       .  S
O795       Mg814   2.142       .  S
O796       Mg808   2.299       .  S
Mg797       O813   2.243       .  S
O798       Mg814   2.277       .  S
H799        C804   1.081       .  S
O800       Mg808   2.125       .  S
O800        C803   1.235       .  S
H801        C803   1.081       .  S
H802        C805   1.081       .  S
O807       Mg814   2.298       .  S
C810       C2716   1.477       .  S
C810        O815   1.271       .  A
O811        C812   1.271       .  A
C812       C1757   1.500       .  S
O817       Mg819   2.129       .  S
O817       Mg825   2.145       .  S
O817        C852   1.235       .  S
C818        H857   1.081       .  S
C818        O831   1.236       .  S
C818        O855   1.271       .  A
Mg819       O848   2.155       .  S
Mg819       O863   2.297       .  S
Mg819       O859   2.254       .  S
Mg819       O830   2.297       .  S
O820       Mg862   2.153       .  S
O820       Mg845   2.154       .  S
O820        C841   1.235       .  S
O821        C852   1.269       .  A
O821       Mg845   2.295       .  S
C822       C2625   1.488       .  S
C822        O824   1.269       .  A
C822        O836   1.274       .  A
O823        C851   1.270       .  A
O823       Mg825   2.299       .  S
O824       Mg856   2.251       .  S
Mg825       O831   2.157       .  S
Mg825       O839   2.291       .  S
Mg825       O827   2.311       .  S
C826       C1596   1.491       .  S
C826        O864   1.271       .  A
C826        O832   1.277       .  A
O827        C834   1.276       .  A
H828        C841   1.081       .  S
C829        H854   1.081       .  S
C829        O843   1.237       .  S
C829        O844   1.271       .  A
O830        C853   1.270       .  A
O831       Mg845   2.156       .  S
O832       Mg862   2.320       .  S
C833       C3024   1.485       .  S
C833        O846   1.271       .  A
C833        O838   1.276       .  A
C834       C1848   1.486       .  S
C834        O861   1.273       .  A
Mg835       O842   2.134       .  S
Mg835       O843   2.153       .  S
Mg835       O836   2.300       .  S
Mg835       O837   2.299       .  S
Mg835       O864   2.261       .  S
O837        C841   1.270       .  A
O838       Mg845   2.315       .  S
O839        C858   1.275       .  A
O840        C860   1.271       .  A
O840       Mg856   2.280       .  S
O842       Mg856   2.146       .  S
O842        C853   1.236       .  S
O843       Mg862   2.144       .  S
O844       Mg856   2.303       .  S
Mg845       O861   2.267       .  S
O846       Mg862   2.260       .  S
H847        C852   1.081       .  S
O848       Mg856   2.137       .  S
O848        C851   1.236       .  S
H849        C851   1.081       .  S
H850        C853   1.081       .  S
O855       Mg862   2.306       .  S
C858       C2464   1.499       .  S
C858        O863   1.274       .  A
O859        C860   1.270       .  A
C860       C1456   1.480       .  S
C865        N866   1.362       .  A
C865        N870   1.362       .  A
C865       C1169   1.485       .  S
N866        C867   1.358       .  A
C867        N868   1.353       .  A
C867       C3472   1.492       .  S
N868        C869   1.355       .  A
C869        N870   1.359       .  A
C869       C1197   1.490       .  S
C871        N872   1.359       .  A
C871        N876   1.361       .  A
C871       C1232   1.490       .  S
N872        C873   1.355       .  A
C873        N874   1.356       .  A
C873       C1204   1.475       .  S
N874        C875   1.356       .  A
C875        N876   1.359       .  A
C875       C3724   1.477       .  S
O877       Mg879   2.136       .  S
O877       Mg885   2.158       .  S
O877        C912   1.236       .  S
C878        H917   1.081       .  S
C878        O891   1.235       .  S
C878        O915   1.270       .  A
Mg879       O908   2.163       .  S
Mg879       O923   2.303       .  S
Mg879       O919   2.237       .  S
Mg879       O890   2.299       .  S
O880       Mg922   2.149       .  S
O880       Mg905   2.138       .  S
O880        C901   1.236       .  S
O881        C912   1.270       .  A
O881       Mg905   2.299       .  S
C882       C1141   1.490       .  S
C882        O884   1.274       .  A
C882        O896   1.274       .  A
O883        C911   1.270       .  A
O883       Mg885   2.300       .  S
O884       Mg916   2.283       .  S
Mg885       O891   2.141       .  S
Mg885       O899   2.261       .  S
Mg885       O887   2.303       .  S
C886       C2520   1.484       .  S
C886        O924   1.271       .  A
C886        O892   1.276       .  A
O887        C894   1.274       .  A
H888        C901   1.081       .  S
C889        H914   1.081       .  S
C889        O903   1.235       .  S
C889        O904   1.270       .  A
O890        C913   1.269       .  A
O891       Mg905   2.150       .  S
O892       Mg922   2.308       .  S
C893       C1869   1.490       .  S
C893        O906   1.275       .  A
C893        O898   1.275       .  A
C894       C2128   1.483       .  S
C894        O921   1.270       .  A
Mg895       O902   2.143       .  S
Mg895       O903   2.155       .  S
Mg895       O896   2.292       .  S
Mg895       O897   2.296       .  S
Mg895       O924   2.261       .  S
O897        C901   1.270       .  A
O898       Mg905   2.319       .  S
O899        C918   1.270       .  A
O900        C920   1.275       .  A
O900       Mg916   2.306       .  S
O902       Mg916   2.156       .  S
O902        C913   1.235       .  S
O903       Mg922   2.153       .  S
O904       Mg916   2.301       .  S
Mg905       O921   2.246       .  S
O906       Mg922   2.287       .  S
H907        C912   1.081       .  S
O908       Mg916   2.153       .  S
O908        C911   1.235       .  S
H909        C911   1.081       .  S
H910        C913   1.081       .  S
O915       Mg922   2.298       .  S
C918       C1176   1.487       .  S
C918        O923   1.274       .  A
O919        C920   1.268       .  A
C920       C2604   1.470       .  S
O925       Mg927   2.162       .  S
O925       Mg933   2.160       .  S
O925        C960   1.237       .  S
C926        H965   1.081       .  S
C926        O939   1.236       .  S
C926        O963   1.270       .  A
Mg927       O956   2.156       .  S
Mg927       O971   2.307       .  S
Mg927       O967   2.290       .  S
Mg927       O938   2.301       .  S
O928       Mg970   2.157       .  S
O928       Mg953   2.146       .  S
O928        C949   1.237       .  S
O929        C960   1.272       .  A
O929       Mg953   2.306       .  S
C930       C2296   1.488       .  S
C930        O932   1.273       .  A
C930        O944   1.277       .  A
O931        C959   1.270       .  A
O931       Mg933   2.302       .  S
O932       Mg964   2.271       .  S
Mg933       O939   2.136       .  S
Mg933       O947   2.261       .  S
Mg933       O935   2.329       .  S
C934       C1540   1.496       .  S
C934        O972   1.276       .  A
C934        O940   1.273       .  A
O935        C942   1.278       .  A
H936        C949   1.081       .  S
C937        H962   1.081       .  S
C937        O951   1.235       .  S
C937        O952   1.268       .  A
O938        C961   1.271       .  A
O939       Mg953   2.146       .  S
O940       Mg970   2.288       .  S
C941       C2772   1.486       .  S
C941        O954   1.271       .  A
C941        O946   1.274       .  A
C942       C2016   1.505       .  S
C942        O969   1.273       .  A
Mg943       O950   2.156       .  S
Mg943       O951   2.151       .  S
Mg943       O944   2.308       .  S
Mg943       O945   2.301       .  S
Mg943       O972   2.295       .  S
O945        C949   1.271       .  A
O946       Mg953   2.298       .  S
O947        C966   1.272       .  A
O948        C968   1.275       .  A
O948       Mg964   2.304       .  S
O950       Mg964   2.166       .  S
O950        C961   1.237       .  S
O951       Mg970   2.135       .  S
O952       Mg964   2.291       .  S
Mg953       O969   2.272       .  S
O954       Mg970   2.255       .  S
H955        C960   1.081       .  S
O956       Mg964   2.149       .  S
O956        C959   1.236       .  S
H957        C959   1.081       .  S
H958        C961   1.081       .  S
O963       Mg970   2.295       .  S
C966       C2352   1.487       .  S
C966        O971   1.276       .  A
O967        C968   1.275       .  A
C968       C1792   1.493       .  S
O973       Mg975   2.132       .  S
O973       Mg981   2.156       .  S
O973       C1008   1.235       .  S
C974       H1013   1.081       .  S
C974        O987   1.238       .  S
C974       O1011   1.272       .  A
Mg975      O1004   2.152       .  S
Mg975      O1019   2.290       .  S
Mg975      O1015   2.247       .  S
Mg975       O986   2.300       .  S
O976      Mg1018   2.148       .  S
O976      Mg1001   2.151       .  S
O976        C997   1.236       .  S
O977       C1008   1.268       .  A
O977      Mg1001   2.290       .  S
C978       C2205   1.487       .  S
C978        O980   1.272       .  A
C978        O992   1.276       .  A
O979       C1007   1.271       .  A
O979       Mg981   2.304       .  S
O980      Mg1012   2.265       .  S
Mg981       O987   2.143       .  S
Mg981       O995   2.281       .  S
Mg981       O983   2.339       .  S
C982       C1708   1.499       .  S
C982       O1020   1.273       .  A
C982        O988   1.275       .  A
O983        C990   1.280       .  A
H984        C997   1.081       .  S
C985       H1010   1.081       .  S
C985        O999   1.235       .  S
C985       O1000   1.269       .  A
O986       C1009   1.271       .  A
O987      Mg1001   2.154       .  S
O988      Mg1018   2.307       .  S
C989       C2429   1.484       .  S
C989       O1002   1.270       .  A
C989        O994   1.272       .  A
C990       C1932   1.499       .  S
C990       O1017   1.273       .  A
Mg991       O998   2.139       .  S
Mg991       O999   2.149       .  S
Mg991       O992   2.309       .  S
Mg991       O993   2.303       .  S
Mg991      O1020   2.273       .  S
O993        C997   1.271       .  A
O994      Mg1001   2.283       .  S
O995       C1014   1.275       .  A
O996       C1016   1.273       .  A
O996      Mg1012   2.287       .  S
O998      Mg1012   2.156       .  S
O998       C1009   1.237       .  S
O999      Mg1018   2.135       .  S
O1000     Mg1012   2.293       .  S
Mg1001     O1017   2.272       .  S
O1002     Mg1018   2.256       .  S
H1003      C1008   1.081       .  S
O1004     Mg1012   2.146       .  S
O1004      C1007   1.236       .  S
H1005      C1007   1.081       .  S
H1006      C1009   1.081       .  S
O1011     Mg1018   2.303       .  S
C1014      C2681   1.488       .  S
C1014      O1019   1.274       .  A
O1015      C1016   1.269       .  A
C1016      C1624   1.478       .  S
C1021      N1022   1.358       .  A
C1021      N1026   1.365       .  A
C1021      C1085   1.495       .  S
N1022      C1023   1.353       .  A
C1023      N1024   1.352       .  A
C1023      C3192   1.471       .  S
N1024      C1025   1.355       .  A
C1025      N1026   1.363       .  A
C1025      C1113   1.480       .  S
C1027      N1028   1.360       .  A
C1027      N1032   1.358       .  A
C1027      C1148   1.485       .  S
N1028      C1029   1.360       .  A
C1029      N1030   1.358       .  A
C1029      C1120   1.489       .  S
N1030      C1031   1.355       .  A
C1031      N1032   1.355       .  A
C1031      C3304   1.475       .  S
O1033     Mg1035   2.153       .  S
O1033     Mg1041   2.155       .  S
O1033      C1068   1.236       .  S
C1034      H1073   1.081       .  S
C1034      O1047   1.236       .  S
C1034      O1071   1.270       .  A
Mg1035     O1064   2.146       .  S
Mg1035     O1079   2.292       .  S
Mg1035     O1075   2.280       .  S
Mg1035     O1046   2.297       .  S
O1036     Mg1078   2.159       .  S
O1036     Mg1061   2.152       .  S
O1036      C1057   1.237       .  S
O1037      C1068   1.270       .  A
O1037     Mg1061   2.300       .  S
C1038      C1092   1.490       .  S
C1038      O1040   1.272       .  A
C1038      O1052   1.275       .  A
O1039      C1067   1.270       .  A
O1039     Mg1041   2.296       .  S
O1040     Mg1072   2.262       .  S
Mg1041     O1047   2.139       .  S
Mg1041     O1055   2.259       .  S
Mg1041     O1043   2.305       .  S
C1042      C2177   1.492       .  S
C1042      O1080   1.272       .  A
C1042      O1048   1.274       .  A
O1043      C1050   1.276       .  A
H1044      C1057   1.081       .  S
C1045      H1070   1.081       .  S
C1045      O1059   1.235       .  S
C1045      O1060   1.269       .  A
O1046      C1069   1.270       .  A
O1047     Mg1061   2.154       .  S
O1048     Mg1078   2.296       .  S
C1049      C2044   1.484       .  S
C1049      O1062   1.271       .  A
C1049      O1054   1.274       .  A
C1050      C2100   1.494       .  S
C1050      O1077   1.273       .  A
Mg1051     O1058   2.143       .  S
Mg1051     O1059   2.149       .  S
Mg1051     O1052   2.303       .  S
Mg1051     O1053   2.307       .  S
Mg1051     O1080   2.273       .  S
O1053      C1057   1.272       .  A
O1054     Mg1061   2.294       .  S
O1055      C1074   1.272       .  A
O1056      C1076   1.275       .  A
O1056     Mg1072   2.306       .  S
O1058     Mg1072   2.161       .  S
O1058      C1069   1.236       .  S
O1059     Mg1078   2.140       .  S
O1060     Mg1072   2.296       .  S
Mg1061     O1077   2.279       .  S
O1062     Mg1078   2.260       .  S
H1063      C1068   1.081       .  S
O1064     Mg1072   2.137       .  S
O1064      C1067   1.236       .  S
H1065      C1067   1.081       .  S
H1066      C1069   1.081       .  S
O1071     Mg1078   2.298       .  S
C1074      C1960   1.487       .  S
C1074      O1079   1.274       .  A
O1075      C1076   1.274       .  A
C1076      C2268   1.488       .  S
C1081      C1082   1.407       .  A
C1081      C1086   1.411       .  A
C1081      C1099   1.451       .  S
C1082      C1083   1.409       .  A
C1082      C1087   1.495       .  S
C1083      C1084   1.410       .  A
C1083      C1088   1.452       .  S
C1084      C1085   1.417       .  A
C1084      C1100   1.448       .  S
C1085      C1086   1.422       .  A
C1086      C1089   1.452       .  S
C1087      C1090   1.409       .  A
C1087      C1094   1.409       .  A
C1088      N1105   1.157       .  T
C1089      N1107   1.158       .  T
C1090      C1091   1.411       .  A
C1090      C1095   1.451       .  S
C1091      C1092   1.417       .  A
C1091      C1097   1.451       .  S
C1092      C1093   1.418       .  A
C1093      C1094   1.410       .  A
C1093      C1096   1.451       .  S
C1094      C1098   1.451       .  S
C1095      N1102   1.157       .  T
C1096      N1103   1.157       .  T
C1097      N1101   1.157       .  T
C1098      N1104   1.157       .  T
C1099      N1108   1.157       .  T
C1100      N1106   1.157       .  T
C1109      C1110   1.412       .  A
C1109      C1114   1.410       .  A
C1109      C1127   1.451       .  S
C1110      C1111   1.409       .  A
C1110      C1115   1.495       .  S
C1111      C1112   1.410       .  A
C1111      C1116   1.450       .  S
C1112      C1113   1.412       .  A
C1112      C1128   1.449       .  S
C1113      C1114   1.413       .  A
C1114      C1117   1.451       .  S
C1115      C1118   1.408       .  A
C1115      C1122   1.411       .  A
C1116      N1133   1.157       .  T
C1117      N1135   1.157       .  T
C1118      C1119   1.410       .  A
C1118      C1123   1.450       .  S
C1119      C1120   1.416       .  A
C1119      C1125   1.450       .  S
C1120      C1121   1.417       .  A
C1121      C1122   1.410       .  A
C1121      C1124   1.452       .  S
C1122      C1126   1.451       .  S
C1123      N1130   1.157       .  T
C1124      N1131   1.158       .  T
C1125      N1129   1.157       .  T
C1126      N1132   1.157       .  T
C1127      N1136   1.157       .  T
C1128      N1134   1.157       .  T
C1137      C1138   1.408       .  A
C1137      C1142   1.408       .  A
C1137      C1155   1.452       .  S
C1138      C1139   1.411       .  A
C1138      C1143   1.494       .  S
C1139      C1140   1.413       .  A
C1139      C1144   1.450       .  S
C1140      C1141   1.415       .  A
C1140      C1156   1.450       .  S
C1141      C1142   1.419       .  A
C1142      C1145   1.452       .  S
C1143      C1146   1.409       .  A
C1143      C1150   1.410       .  A
C1144      N1161   1.157       .  T
C1145      N1163   1.157       .  T
C1146      C1147   1.409       .  A
C1146      C1151   1.451       .  S
C1147      C1148   1.415       .  A
C1147      C1153   1.452       .  S
C1148      C1149   1.415       .  A
C1149      C1150   1.411       .  A
C1149      C1152   1.451       .  S
C1150      C1154   1.450       .  S
C1151      N1158   1.157       .  T
C1152      N1159   1.157       .  T
C1153      N1157   1.157       .  T
C1154      N1160   1.157       .  T
C1155      N1164   1.157       .  T
C1156      N1162   1.157       .  T
C1165      C1166   1.410       .  A
C1165      C1170   1.409       .  A
C1165      C1183   1.451       .  S
C1166      C1167   1.410       .  A
C1166      C1171   1.495       .  S
C1167      C1168   1.412       .  A
C1167      C1172   1.450       .  S
C1168      C1169   1.415       .  A
C1168      C1184   1.451       .  S
C1169      C1170   1.414       .  A
C1170      C1173   1.451       .  S
C1171      C1174   1.409       .  A
C1171      C1178   1.411       .  A
C1172      N1189   1.157       .  T
C1173      N1191   1.157       .  T
C1174      C1175   1.409       .  A
C1174      C1179   1.451       .  S
C1175      C1176   1.416       .  A
C1175      C1181   1.451       .  S
C1176      C1177   1.414       .  A
C1177      C1178   1.412       .  A
C1177      C1180   1.450       .  S
C1178      C1182   1.450       .  S
C1179      N1186   1.157       .  T
C1180      N1187   1.157       .  T
C1181      N1185   1.157       .  T
C1182      N1188   1.157       .  T
C1183      N1192   1.157       .  T
C1184      N1190   1.157       .  T
C1193      C1194   1.409       .  A
C1193      C1198   1.405       .  A
C1193      C1211   1.452       .  S
C1194      C1195   1.412       .  A
C1194      C1199   1.494       .  S
C1195      C1196   1.414       .  A
C1195      C1200   1.451       .  S
C1196      C1197   1.417       .  A
C1196      C1212   1.450       .  S
C1197      C1198   1.416       .  A
C1198      C1201   1.452       .  S
C1199      C1202   1.412       .  A
C1199      C1206   1.412       .  A
C1200      N1217   1.157       .  T
C1201      N1219   1.157       .  T
C1202      C1203   1.409       .  A
C1202      C1207   1.451       .  S
C1203      C1204   1.410       .  A
C1203      C1209   1.450       .  S
C1204      C1205   1.410       .  A
C1205      C1206   1.409       .  A
C1205      C1208   1.451       .  S
C1206      C1210   1.451       .  S
C1207      N1214   1.157       .  T
C1208      N1215   1.157       .  T
C1209      N1213   1.157       .  T
C1210      N1216   1.157       .  T
C1211      N1220   1.157       .  T
C1212      N1218   1.158       .  T
C1221      C1222   1.412       .  A
C1221      C1226   1.409       .  A
C1221      C1239   1.451       .  S
C1222      C1223   1.411       .  A
C1222      C1227   1.491       .  S
C1223      C1224   1.406       .  A
C1223      C1228   1.451       .  S
C1224      C1225   1.409       .  A
C1224      C1240   1.451       .  S
C1225      C1226   1.412       .  A
C1226      C1229   1.451       .  S
C1227      C1230   1.407       .  A
C1227      C1234   1.410       .  A
C1228      N1245   1.157       .  T
C1229      N1247   1.157       .  T
C1230      C1231   1.408       .  A
C1230      C1235   1.452       .  S
C1231      C1232   1.419       .  A
C1231      C1237   1.450       .  S
C1232      C1233   1.418       .  A
C1233      C1234   1.409       .  A
C1233      C1236   1.451       .  S
C1234      C1238   1.452       .  S
C1235      N1242   1.157       .  T
C1236      N1243   1.157       .  T
C1237      N1241   1.157       .  T
C1238      N1244   1.157       .  T
C1239      N1248   1.157       .  T
C1240      N1246   1.157       .  T
C1249      C1250   1.409       .  A
C1249      C1254   1.414       .  A
C1249      C1267   1.451       .  S
C1250      C1251   1.407       .  A
C1250      C1255   1.499       .  S
C1251      C1252   1.412       .  A
C1251      C1256   1.452       .  S
C1252      C1253   1.425       .  A
C1252      C1268   1.452       .  S
C1253      C1254   1.423       .  A
C1254      C1257   1.451       .  S
C1255      C1258   1.410       .  A
C1255      C1262   1.410       .  A
C1256      N1273   1.157       .  T
C1257      N1275   1.158       .  T
C1258      C1259   1.412       .  A
C1258      C1263   1.451       .  S
C1259      C1260   1.418       .  A
C1259      C1265   1.451       .  S
C1260      C1261   1.420       .  A
C1261      C1262   1.412       .  A
C1261      C1264   1.452       .  S
C1262      C1266   1.451       .  S
C1263      N1270   1.157       .  T
C1264      N1271   1.158       .  T
C1265      N1269   1.157       .  T
C1266      N1272   1.157       .  T
C1267      N1276   1.157       .  T
C1268      N1274   1.158       .  T
C1277      C1278   1.412       .  A
C1277      C1282   1.412       .  A
C1277      C1295   1.451       .  S
C1278      C1279   1.409       .  A
C1278      C1283   1.496       .  S
C1279      C1280   1.409       .  A
C1279      C1284   1.450       .  S
C1280      C1281   1.416       .  A
C1280      C1296   1.451       .  S
C1281      C1282   1.416       .  A
C1282      C1285   1.452       .  S
C1283      C1286   1.410       .  A
C1283      C1290   1.410       .  A
C1284      N1301   1.157       .  T
C1285      N1303   1.158       .  T
C1286      C1287   1.410       .  A
C1286      C1291   1.451       .  S
C1287      C1288   1.416       .  A
C1287      C1293   1.451       .  S
C1288      C1289   1.418       .  A
C1289      C1290   1.412       .  A
C1289      C1292   1.451       .  S
C1290      C1294   1.451       .  S
C1291      N1298   1.157       .  T
C1292      N1299   1.157       .  T
C1293      N1297   1.157       .  T
C1294      N1300   1.157       .  T
C1295      N1304   1.157       .  T
C1296      N1302   1.157       .  T
C1305      C1306   1.413       .  A
C1305      C1310   1.412       .  A
C1305      C1323   1.450       .  S
C1306      C1307   1.412       .  A
C1306      C1311   1.500       .  S
C1307      C1308   1.411       .  A
C1307      C1312   1.450       .  S
C1308      C1309   1.413       .  A
C1308      C1324   1.451       .  S
C1309      C1310   1.413       .  A
C1310      C1313   1.451       .  S
C1311      C1314   1.411       .  A
C1311      C1318   1.410       .  A
C1312      N1329   1.157       .  T
C1313      N1331   1.157       .  T
C1314      C1315   1.416       .  A
C1314      C1319   1.450       .  S
C1315      C1316   1.420       .  A
C1315      C1321   1.450       .  S
C1316      C1317   1.419       .  A
C1317      C1318   1.408       .  A
C1317      C1320   1.452       .  S
C1318      C1322   1.453       .  S
C1319      N1326   1.157       .  T
C1320      N1327   1.157       .  T
C1321      N1325   1.158       .  T
C1322      N1328   1.157       .  T
C1323      N1332   1.157       .  T
C1324      N1330   1.157       .  T
C1333      C1334   1.409       .  A
C1333      C1338   1.411       .  A
C1333      C1351   1.451       .  S
C1334      C1335   1.410       .  A
C1334      C1339   1.493       .  S
C1335      C1336   1.407       .  A
C1335      C1340   1.453       .  S
C1336      C1337   1.417       .  A
C1336      C1352   1.451       .  S
C1337      C1338   1.418       .  A
C1338      C1341   1.451       .  S
C1339      C1342   1.411       .  A
C1339      C1346   1.411       .  A
C1340      N1357   1.157       .  T
C1341      N1359   1.157       .  T
C1342      C1343   1.410       .  A
C1342      C1347   1.450       .  S
C1343      C1344   1.414       .  A
C1343      C1349   1.451       .  S
C1344      C1345   1.416       .  A
C1345      C1346   1.406       .  A
C1345      C1348   1.453       .  S
C1346      C1350   1.452       .  S
C1347      N1354   1.157       .  T
C1348      N1355   1.158       .  T
C1349      N1353   1.157       .  T
C1350      N1356   1.157       .  T
C1351      N1360   1.157       .  T
C1352      N1358   1.157       .  T
C1361      C1362   1.410       .  A
C1361      C1366   1.408       .  A
C1361      C1379   1.451       .  S
C1362      C1363   1.408       .  A
C1362      C1367   1.486       .  S
C1363      C1364   1.406       .  A
C1363      C1368   1.451       .  S
C1364      C1365   1.414       .  A
C1364      C1380   1.452       .  S
C1365      C1366   1.412       .  A
C1366      C1369   1.451       .  S
C1367      C1370   1.408       .  A
C1367      C1374   1.407       .  A
C1368      N1385   1.157       .  T
C1369      N1387   1.157       .  T
C1370      C1371   1.408       .  A
C1370      C1375   1.451       .  S
C1371      C1372   1.417       .  A
C1371      C1377   1.451       .  S
C1372      C1373   1.416       .  A
C1373      C1374   1.407       .  A
C1373      C1376   1.451       .  S
C1374      C1378   1.452       .  S
C1375      N1382   1.157       .  T
C1376      N1383   1.157       .  T
C1377      N1381   1.157       .  T
C1378      N1384   1.157       .  T
C1379      N1388   1.157       .  T
C1380      N1386   1.157       .  T
C1389      C1390   1.411       .  A
C1389      C1394   1.408       .  A
C1389      C1407   1.451       .  S
C1390      C1391   1.411       .  A
C1390      C1395   1.494       .  S
C1391      C1392   1.411       .  A
C1391      C1396   1.450       .  S
C1392      C1393   1.413       .  A
C1392      C1408   1.450       .  S
C1393      C1394   1.411       .  A
C1394      C1397   1.451       .  S
C1395      C1398   1.410       .  A
C1395      C1402   1.410       .  A
C1396      N1413   1.157       .  T
C1397      N1415   1.157       .  T
C1398      C1399   1.411       .  A
C1398      C1403   1.450       .  S
C1399      C1400   1.416       .  A
C1399      C1405   1.450       .  S
C1400      C1401   1.418       .  A
C1401      C1402   1.408       .  A
C1401      C1404   1.453       .  S
C1402      C1406   1.452       .  S
C1403      N1410   1.157       .  T
C1404      N1411   1.158       .  T
C1405      N1409   1.157       .  T
C1406      N1412   1.157       .  T
C1407      N1416   1.157       .  T
C1408      N1414   1.157       .  T
C1417      C1418   1.407       .  A
C1417      C1422   1.405       .  A
C1417      C1435   1.452       .  S
C1418      C1419   1.407       .  A
C1418      C1423   1.484       .  S
C1419      C1420   1.407       .  A
C1419      C1424   1.451       .  S
C1420      C1421   1.416       .  A
C1420      C1436   1.452       .  S
C1421      C1422   1.417       .  A
C1422      C1425   1.452       .  S
C1423      C1426   1.406       .  A
C1423      C1430   1.406       .  A
C1424      N1441   1.157       .  T
C1425      N1443   1.157       .  T
C1426      C1427   1.407       .  A
C1426      C1431   1.452       .  S
C1427      C1428   1.421       .  A
C1427      C1433   1.453       .  S
C1428      C1429   1.421       .  A
C1429      C1430   1.406       .  A
C1429      C1432   1.452       .  S
C1430      C1434   1.453       .  S
C1431      N1438   1.157       .  T
C1432      N1439   1.158       .  T
C1433      N1437   1.158       .  T
C1434      N1440   1.157       .  T
C1435      N1444   1.157       .  T
C1436      N1442   1.157       .  T
C1445      C1446   1.410       .  A
C1445      C1450   1.407       .  A
C1445      C1463   1.451       .  S
C1446      C1447   1.410       .  A
C1446      C1451   1.488       .  S
C1447      C1448   1.406       .  A
C1447      C1452   1.451       .  S
C1448      C1449   1.414       .  A
C1448      C1464   1.452       .  S
C1449      C1450   1.415       .  A
C1450      C1453   1.452       .  S
C1451      C1454   1.410       .  A
C1451      C1458   1.409       .  A
C1452      N1469   1.157       .  T
C1453      N1471   1.157       .  T
C1454      C1455   1.408       .  A
C1454      C1459   1.451       .  S
C1455      C1456   1.414       .  A
C1455      C1461   1.451       .  S
C1456      C1457   1.416       .  A
C1457      C1458   1.406       .  A
C1457      C1460   1.452       .  S
C1458      C1462   1.452       .  S
C1459      N1466   1.157       .  T
C1460      N1467   1.157       .  T
C1461      N1465   1.157       .  T
C1462      N1468   1.157       .  T
C1463      N1472   1.157       .  T
C1464      N1470   1.157       .  T
C1473      C1474   1.409       .  A
C1473      C1478   1.409       .  A
C1473      C1491   1.450       .  S
C1474      C1475   1.411       .  A
C1474      C1479   1.488       .  S
C1475      C1476   1.405       .  A
C1475      C1480   1.452       .  S
C1476      C1477   1.412       .  A
C1476      C1492   1.452       .  S
C1477      C1478   1.416       .  A
C1478      C1481   1.451       .  S
C1479      C1482   1.408       .  A
C1479      C1486   1.408       .  A
C1480      N1497   1.157       .  T
C1481      N1499   1.158       .  T
C1482      C1483   1.411       .  A
C1482      C1487   1.451       .  S
C1483      C1484   1.418       .  A
C1483      C1489   1.450       .  S
C1484      C1485   1.414       .  A
C1485      C1486   1.405       .  A
C1485      C1488   1.451       .  S
C1486      C1490   1.451       .  S
C1487      N1494   1.157       .  T
C1488      N1495   1.157       .  T
C1489      N1493   1.157       .  T
C1490      N1496   1.157       .  T
C1491      N1500   1.157       .  T
C1492      N1498   1.157       .  T
C1501      C1502   1.409       .  A
C1501      C1506   1.406       .  A
C1501      C1519   1.451       .  S
C1502      C1503   1.409       .  A
C1502      C1507   1.488       .  S
C1503      C1504   1.408       .  A
C1503      C1508   1.451       .  S
C1504      C1505   1.416       .  A
C1504      C1520   1.452       .  S
C1505      C1506   1.414       .  A
C1506      C1509   1.452       .  S
C1507      C1510   1.406       .  A
C1507      C1514   1.410       .  A
C1508      N1525   1.157       .  T
C1509      N1527   1.157       .  T
C1510      C1511   1.407       .  A
C1510      C1515   1.452       .  S
C1511      C1512   1.417       .  A
C1511      C1517   1.448       .  S
C1512      C1513   1.415       .  A
C1513      C1514   1.411       .  A
C1513      C1516   1.450       .  S
C1514      C1518   1.451       .  S
C1515      N1522   1.157       .  T
C1516      N1523   1.157       .  T
C1517      N1521   1.156       .  T
C1518      N1524   1.157       .  T
C1519      N1528   1.157       .  T
C1520      N1526   1.158       .  T
C1529      C1530   1.409       .  A
C1529      C1534   1.411       .  A
C1529      C1547   1.451       .  S
C1530      C1531   1.411       .  A
C1530      C1535   1.500       .  S
C1531      C1532   1.414       .  A
C1531      C1536   1.451       .  S
C1532      C1533   1.418       .  A
C1532      C1548   1.450       .  S
C1533      C1534   1.419       .  A
C1534      C1537   1.451       .  S
C1535      C1538   1.412       .  A
C1535      C1542   1.408       .  A
C1536      N1553   1.157       .  T
C1537      N1555   1.157       .  T
C1538      C1539   1.414       .  A
C1538      C1543   1.450       .  S
C1539      C1540   1.416       .  A
C1539      C1545   1.450       .  S
C1540      C1541   1.422       .  A
C1541      C1542   1.411       .  A
C1541      C1544   1.452       .  S
C1542      C1546   1.451       .  S
C1543      N1550   1.157       .  T
C1544      N1551   1.158       .  T
C1545      N1549   1.157       .  T
C1546      N1552   1.157       .  T
C1547      N1556   1.157       .  T
C1548      N1554   1.157       .  T
C1557      C1558   1.411       .  A
C1557      C1562   1.415       .  A
C1557      C1575   1.450       .  S
C1558      C1559   1.410       .  A
C1558      C1563   1.496       .  S
C1559      C1560   1.407       .  A
C1559      C1564   1.453       .  S
C1560      C1561   1.418       .  A
C1560      C1576   1.452       .  S
C1561      C1562   1.415       .  A
C1562      C1565   1.450       .  S
C1563      C1566   1.411       .  A
C1563      C1570   1.411       .  A
C1564      N1581   1.157       .  T
C1565      N1583   1.157       .  T
C1566      C1567   1.411       .  A
C1566      C1571   1.451       .  S
C1567      C1568   1.416       .  A
C1567      C1573   1.451       .  S
C1568      C1569   1.415       .  A
C1569      C1570   1.410       .  A
C1569      C1572   1.452       .  S
C1570      C1574   1.450       .  S
C1571      N1578   1.157       .  T
C1572      N1579   1.157       .  T
C1573      N1577   1.157       .  T
C1574      N1580   1.157       .  T
C1575      N1584   1.157       .  T
C1576      N1582   1.157       .  T
C1585      C1586   1.411       .  A
C1585      C1590   1.407       .  A
C1585      C1603   1.450       .  S
C1586      C1587   1.414       .  A
C1586      C1591   1.498       .  S
C1587      C1588   1.413       .  A
C1587      C1592   1.450       .  S
C1588      C1589   1.411       .  A
C1588      C1604   1.451       .  S
C1589      C1590   1.410       .  A
C1590      C1593   1.450       .  S
C1591      C1594   1.410       .  A
C1591      C1598   1.411       .  A
C1592      N1609   1.157       .  T
C1593      N1611   1.157       .  T
C1594      C1595   1.412       .  A
C1594      C1599   1.451       .  S
C1595      C1596   1.416       .  A
C1595      C1601   1.450       .  S
C1596      C1597   1.417       .  A
C1597      C1598   1.411       .  A
C1597      C1600   1.451       .  S
C1598      C1602   1.451       .  S
C1599      N1606   1.157       .  T
C1600      N1607   1.157       .  T
C1601      N1605   1.157       .  T
C1602      N1608   1.157       .  T
C1603      N1612   1.157       .  T
C1604      N1610   1.157       .  T
C1613      C1614   1.408       .  A
C1613      C1618   1.407       .  A
C1613      C1631   1.452       .  S
C1614      C1615   1.404       .  A
C1614      C1619   1.485       .  S
C1615      C1616   1.407       .  A
C1615      C1620   1.452       .  S
C1616      C1617   1.424       .  A
C1616      C1632   1.453       .  S
C1617      C1618   1.419       .  A
C1618      C1621   1.451       .  S
C1619      C1622   1.408       .  A
C1619      C1626   1.408       .  A
C1620      N1637   1.157       .  T
C1621      N1639   1.157       .  T
C1622      C1623   1.407       .  A
C1622      C1627   1.451       .  S
C1623      C1624   1.414       .  A
C1623      C1629   1.451       .  S
C1624      C1625   1.416       .  A
C1625      C1626   1.407       .  A
C1625      C1628   1.452       .  S
C1626      C1630   1.452       .  S
C1627      N1634   1.157       .  T
C1628      N1635   1.157       .  T
C1629      N1633   1.157       .  T
C1630      N1636   1.157       .  T
C1631      N1640   1.157       .  T
C1632      N1638   1.158       .  T
C1641      C1642   1.411       .  A
C1641      C1646   1.412       .  A
C1641      C1659   1.450       .  S
C1642      C1643   1.409       .  A
C1642      C1647   1.493       .  S
C1643      C1644   1.406       .  A
C1643      C1648   1.452       .  S
C1644      C1645   1.415       .  A
C1644      C1660   1.452       .  S
C1645      C1646   1.414       .  A
C1646      C1649   1.450       .  S
C1647      C1650   1.410       .  A
C1647      C1654   1.409       .  A
C1648      N1665   1.157       .  T
C1649      N1667   1.157       .  T
C1650      C1651   1.407       .  A
C1650      C1655   1.453       .  S
C1651      C1652   1.417       .  A
C1651      C1657   1.450       .  S
C1652      C1653   1.418       .  A
C1653      C1654   1.413       .  A
C1653      C1656   1.450       .  S
C1654      C1658   1.450       .  S
C1655      N1662   1.157       .  T
C1656      N1663   1.157       .  T
C1657      N1661   1.157       .  T
C1658      N1664   1.157       .  T
C1659      N1668   1.157       .  T
C1660      N1666   1.157       .  T
C1669      C1670   1.408       .  A
C1669      C1674   1.409       .  A
C1669      C1687   1.451       .  S
C1670      C1671   1.411       .  A
C1670      C1675   1.491       .  S
C1671      C1672   1.410       .  A
C1671      C1676   1.451       .  S
C1672      C1673   1.413       .  A
C1672      C1688   1.450       .  S
C1673      C1674   1.414       .  A
C1674      C1677   1.451       .  S
C1675      C1678   1.411       .  A
C1675      C1682   1.407       .  A
C1676      N1693   1.157       .  T
C1677      N1695   1.157       .  T
C1678      C1679   1.411       .  A
C1678      C1683   1.450       .  S
C1679      C1680   1.413       .  A
C1679      C1685   1.450       .  S
C1680      C1681   1.416       .  A
C1681      C1682   1.405       .  A
C1681      C1684   1.452       .  S
C1682      C1686   1.451       .  S
C1683      N1690   1.157       .  T
C1684      N1691   1.157       .  T
C1685      N1689   1.157       .  T
C1686      N1692   1.157       .  T
C1687      N1696   1.157       .  T
C1688      N1694   1.157       .  T
C1697      C1698   1.410       .  A
C1697      C1702   1.411       .  A
C1697      C1715   1.450       .  S
C1698      C1699   1.410       .  A
C1698      C1703   1.495       .  S
C1699      C1700   1.410       .  A
C1699      C1704   1.451       .  S
C1700      C1701   1.415       .  A
C1700      C1716   1.451       .  S
C1701      C1702   1.414       .  A
C1702      C1705   1.451       .  S
C1703      C1706   1.407       .  A
C1703      C1710   1.409       .  A
C1704      N1721   1.157       .  T
C1705      N1723   1.157       .  T
C1706      C1707   1.411       .  A
C1706      C1711   1.452       .  S
C1707      C1708   1.422       .  A
C1707      C1713   1.452       .  S
C1708      C1709   1.420       .  A
C1709      C1710   1.412       .  A
C1709      C1712   1.451       .  S
C1710      C1714   1.451       .  S
C1711      N1718   1.157       .  T
C1712      N1719   1.157       .  T
C1713      N1717   1.157       .  T
C1714      N1720   1.157       .  T
C1715      N1724   1.157       .  T
C1716      N1722   1.157       .  T
C1725      C1726   1.407       .  A
C1725      C1730   1.414       .  A
C1725      C1743   1.450       .  S
C1726      C1727   1.407       .  A
C1726      C1731   1.494       .  S
C1727      C1728   1.408       .  A
C1727      C1732   1.453       .  S
C1728      C1729   1.423       .  A
C1728      C1744   1.453       .  S
C1729      C1730   1.421       .  A
C1730      C1733   1.450       .  S
C1731      C1734   1.410       .  A
C1731      C1738   1.410       .  A
C1732      N1749   1.157       .  T
C1733      N1751   1.157       .  T
C1734      C1735   1.411       .  A
C1734      C1739   1.450       .  S
C1735      C1736   1.414       .  A
C1735      C1741   1.450       .  S
C1736      C1737   1.415       .  A
C1737      C1738   1.409       .  A
C1737      C1740   1.452       .  S
C1738      C1742   1.451       .  S
C1739      N1746   1.157       .  T
C1740      N1747   1.157       .  T
C1741      N1745   1.157       .  T
C1742      N1748   1.157       .  T
C1743      N1752   1.157       .  T
C1744      N1750   1.158       .  T
C1753      C1754   1.407       .  A
C1753      C1758   1.411       .  A
C1753      C1771   1.452       .  S
C1754      C1755   1.408       .  A
C1754      C1759   1.496       .  S
C1755      C1756   1.411       .  A
C1755      C1760   1.452       .  S
C1756      C1757   1.422       .  A
C1756      C1772   1.452       .  S
C1757      C1758   1.423       .  A
C1758      C1761   1.452       .  S
C1759      C1762   1.409       .  A
C1759      C1766   1.407       .  A
C1760      N1777   1.157       .  T
C1761      N1779   1.158       .  T
C1762      C1763   1.412       .  A
C1762      C1767   1.451       .  S
C1763      C1764   1.419       .  A
C1763      C1769   1.451       .  S
C1764      C1765   1.422       .  A
C1765      C1766   1.411       .  A
C1765      C1768   1.451       .  S
C1766      C1770   1.452       .  S
C1767      N1774   1.157       .  T
C1768      N1775   1.157       .  T
C1769      N1773   1.157       .  T
C1770      N1776   1.157       .  T
C1771      N1780   1.157       .  T
C1772      N1778   1.158       .  T
C1781      C1782   1.413       .  A
C1781      C1786   1.414       .  A
C1781      C1799   1.450       .  S
C1782      C1783   1.410       .  A
C1782      C1787   1.500       .  S
C1783      C1784   1.410       .  A
C1783      C1788   1.450       .  S
C1784      C1785   1.413       .  A
C1784      C1800   1.451       .  S
C1785      C1786   1.412       .  A
C1786      C1789   1.450       .  S
C1787      C1790   1.409       .  A
C1787      C1794   1.412       .  A
C1788      N1805   1.157       .  T
C1789      N1807   1.157       .  T
C1790      C1791   1.412       .  A
C1790      C1795   1.451       .  S
C1791      C1792   1.418       .  A
C1791      C1797   1.451       .  S
C1792      C1793   1.414       .  A
C1793      C1794   1.415       .  A
C1793      C1796   1.450       .  S
C1794      C1798   1.450       .  S
C1795      N1802   1.157       .  T
C1796      N1803   1.157       .  T
C1797      N1801   1.157       .  T
C1798      N1804   1.157       .  T
C1799      N1808   1.157       .  T
C1800      N1806   1.157       .  T
C1809      C1810   1.409       .  A
C1809      C1814   1.415       .  A
C1809      C1827   1.450       .  S
C1810      C1811   1.409       .  A
C1810      C1815   1.498       .  S
C1811      C1812   1.410       .  A
C1811      C1816   1.452       .  S
C1812      C1813   1.421       .  A
C1812      C1828   1.452       .  S
C1813      C1814   1.419       .  A
C1814      C1817   1.450       .  S
C1815      C1818   1.411       .  A
C1815      C1822   1.410       .  A
C1816      N1833   1.157       .  T
C1817      N1835   1.157       .  T
C1818      C1819   1.414       .  A
C1818      C1823   1.449       .  S
C1819      C1820   1.415       .  A
C1819      C1825   1.450       .  S
C1820      C1821   1.416       .  A
C1821      C1822   1.409       .  A
C1821      C1824   1.452       .  S
C1822      C1826   1.452       .  S
C1823      N1830   1.157       .  T
C1824      N1831   1.157       .  T
C1825      N1829   1.157       .  T
C1826      N1832   1.157       .  T
C1827      N1836   1.157       .  T
C1828      N1834   1.158       .  T
C1837      C1838   1.411       .  A
C1837      C1842   1.410       .  A
C1837      C1855   1.451       .  S
C1838      C1839   1.414       .  A
C1838      C1843   1.501       .  S
C1839      C1840   1.414       .  A
C1839      C1844   1.450       .  S
C1840      C1841   1.413       .  A
C1840      C1856   1.450       .  S
C1841      C1842   1.415       .  A
C1842      C1845   1.451       .  S
C1843      C1846   1.412       .  A
C1843      C1850   1.414       .  A
C1844      N1861   1.157       .  T
C1845      N1863   1.157       .  T
C1846      C1847   1.409       .  A
C1846      C1851   1.452       .  S
C1847      C1848   1.414       .  A
C1847      C1853   1.451       .  S
C1848      C1849   1.413       .  A
C1849      C1850   1.414       .  A
C1849      C1852   1.451       .  S
C1850      C1854   1.450       .  S
C1851      N1858   1.157       .  T
C1852      N1859   1.157       .  T
C1853      N1857   1.157       .  T
C1854      N1860   1.157       .  T
C1855      N1864   1.157       .  T
C1856      N1862   1.157       .  T
C1865      C1866   1.414       .  A
C1865      C1870   1.417       .  A
C1865      C1883   1.450       .  S
C1866      C1867   1.410       .  A
C1866      C1871   1.503       .  S
C1867      C1868   1.411       .  A
C1867      C1872   1.450       .  S
C1868      C1869   1.413       .  A
C1868      C1884   1.449       .  S
C1869      C1870   1.414       .  A
C1870      C1873   1.450       .  S
C1871      C1874   1.411       .  A
C1871      C1878   1.412       .  A
C1872      N1889   1.157       .  T
C1873      N1891   1.158       .  T
C1874      C1875   1.413       .  A
C1874      C1879   1.450       .  S
C1875      C1876   1.417       .  A
C1875      C1881   1.452       .  S
C1876      C1877   1.415       .  A
C1877      C1878   1.415       .  A
C1877      C1880   1.448       .  S
C1878      C1882   1.450       .  S
C1879      N1886   1.157       .  T
C1880      N1887   1.157       .  T
C1881      N1885   1.157       .  T
C1882      N1888   1.157       .  T
C1883      N1892   1.157       .  T
C1884      N1890   1.157       .  T
C1893      C1894   1.414       .  A
C1893      C1898   1.414       .  A
C1893      C1911   1.451       .  S
C1894      C1895   1.414       .  A
C1894      C1899   1.509       .  S
C1895      C1896   1.414       .  A
C1895      C1900   1.449       .  S
C1896      C1897   1.412       .  A
C1896      C1912   1.450       .  S
C1897      C1898   1.413       .  A
C1898      C1901   1.448       .  S
C1899      C1902   1.413       .  A
C1899      C1906   1.415       .  A
C1900      N1917   1.157       .  T
C1901      N1919   1.157       .  T
C1902      C1903   1.410       .  A
C1902      C1907   1.452       .  S
C1903      C1904   1.418       .  A
C1903      C1909   1.452       .  S
C1904      C1905   1.417       .  A
C1905      C1906   1.419       .  A
C1905      C1908   1.450       .  S
C1906      C1910   1.450       .  S
C1907      N1914   1.157       .  T
C1908      N1915   1.157       .  T
C1909      N1913   1.157       .  T
C1910      N1916   1.157       .  T
C1911      N1920   1.157       .  T
C1912      N1918   1.157       .  T
C1921      C1922   1.411       .  A
C1921      C1926   1.417       .  A
C1921      C1939   1.450       .  S
C1922      C1923   1.409       .  A
C1922      C1927   1.506       .  S
C1923      C1924   1.415       .  A
C1923      C1928   1.451       .  S
C1924      C1925   1.423       .  A
C1924      C1940   1.451       .  S
C1925      C1926   1.420       .  A
C1926      C1929   1.450       .  S
C1927      C1930   1.412       .  A
C1927      C1934   1.410       .  A
C1928      N1945   1.157       .  T
C1929      N1947   1.157       .  T
C1930      C1931   1.416       .  A
C1930      C1935   1.450       .  S
C1931      C1932   1.416       .  A
C1931      C1937   1.451       .  S
C1932      C1933   1.419       .  A
C1933      C1934   1.415       .  A
C1933      C1936   1.451       .  S
C1934      C1938   1.451       .  S
C1935      N1942   1.157       .  T
C1936      N1943   1.158       .  T
C1937      N1941   1.157       .  T
C1938      N1944   1.157       .  T
C1939      N1948   1.157       .  T
C1940      N1946   1.157       .  T
C1949      C1950   1.410       .  A
C1949      C1954   1.409       .  A
C1949      C1967   1.451       .  S
C1950      C1951   1.410       .  A
C1950      C1955   1.494       .  S
C1951      C1952   1.411       .  A
C1951      C1956   1.451       .  S
C1952      C1953   1.415       .  A
C1952      C1968   1.450       .  S
C1953      C1954   1.415       .  A
C1954      C1957   1.451       .  S
C1955      C1958   1.409       .  A
C1955      C1962   1.411       .  A
C1956      N1973   1.157       .  T
C1957      N1975   1.157       .  T
C1958      C1959   1.409       .  A
C1958      C1963   1.451       .  S
C1959      C1960   1.418       .  A
C1959      C1965   1.452       .  S
C1960      C1961   1.415       .  A
C1961      C1962   1.410       .  A
C1961      C1964   1.452       .  S
C1962      C1966   1.451       .  S
C1963      N1970   1.157       .  T
C1964      N1971   1.157       .  T
C1965      N1969   1.157       .  T
C1966      N1972   1.157       .  T
C1967      N1976   1.157       .  T
C1968      N1974   1.157       .  T
C1977      C1978   1.411       .  A
C1977      C1982   1.413       .  A
C1977      C1995   1.450       .  S
C1978      C1979   1.412       .  A
C1978      C1983   1.503       .  S
C1979      C1980   1.414       .  A
C1979      C1984   1.450       .  S
C1980      C1981   1.415       .  A
C1980      C1996   1.451       .  S
C1981      C1982   1.415       .  A
C1982      C1985   1.450       .  S
C1983      C1986   1.411       .  A
C1983      C1990   1.412       .  A
C1984      N2001   1.157       .  T
C1985      N2003   1.157       .  T
C1986      C1987   1.411       .  A
C1986      C1991   1.452       .  S
C1987      C1988   1.417       .  A
C1987      C1993   1.451       .  S
C1988      C1989   1.416       .  A
C1989      C1990   1.416       .  A
C1989      C1992   1.450       .  S
C1990      C1994   1.449       .  S
C1991      N1998   1.157       .  T
C1992      N1999   1.157       .  T
C1993      N1997   1.157       .  T
C1994      N2000   1.157       .  T
C1995      N2004   1.157       .  T
C1996      N2002   1.158       .  T
C2005      C2006   1.412       .  A
C2005      C2010   1.415       .  A
C2005      C2023   1.450       .  S
C2006      C2007   1.409       .  A
C2006      C2011   1.503       .  S
C2007      C2008   1.412       .  A
C2007      C2012   1.451       .  S
C2008      C2009   1.422       .  A
C2008      C2024   1.452       .  S
C2009      C2010   1.417       .  A
C2010      C2013   1.450       .  S
C2011      C2014   1.409       .  A
C2011      C2018   1.410       .  A
C2012      N2029   1.157       .  T
C2013      N2031   1.157       .  T
C2014      C2015   1.412       .  A
C2014      C2019   1.452       .  S
C2015      C2016   1.422       .  A
C2015      C2021   1.451       .  S
C2016      C2017   1.422       .  A
C2017      C2018   1.416       .  A
C2017      C2020   1.451       .  S
C2018      C2022   1.451       .  S
C2019      N2026   1.157       .  T
C2020      N2027   1.157       .  T
C2021      N2025   1.157       .  T
C2022      N2028   1.157       .  T
C2023      N2032   1.157       .  T
C2024      N2030   1.158       .  T
C2033      C2034   1.410       .  A
C2033      C2038   1.407       .  A
C2033      C2051   1.451       .  S
C2034      C2035   1.411       .  A
C2034      C2039   1.492       .  S
C2035      C2036   1.411       .  A
C2035      C2040   1.451       .  S
C2036      C2037   1.415       .  A
C2036      C2052   1.451       .  S
C2037      C2038   1.414       .  A
C2038      C2041   1.451       .  S
C2039      C2042   1.409       .  A
C2039      C2046   1.410       .  A
C2040      N2057   1.157       .  T
C2041      N2059   1.157       .  T
C2042      C2043   1.408       .  A
C2042      C2047   1.451       .  S
C2043      C2044   1.414       .  A
C2043      C2049   1.451       .  S
C2044      C2045   1.416       .  A
C2045      C2046   1.410       .  A
C2045      C2048   1.452       .  S
C2046      C2050   1.451       .  S
C2047      N2054   1.157       .  T
C2048      N2055   1.158       .  T
C2049      N2053   1.157       .  T
C2050      N2056   1.157       .  T
C2051      N2060   1.157       .  T
C2052      N2058   1.157       .  T
C2061      C2062   1.410       .  A
C2061      C2066   1.411       .  A
C2061      C2079   1.449       .  S
C2062      C2063   1.411       .  A
C2062      C2067   1.494       .  S
C2063      C2064   1.407       .  A
C2063      C2068   1.451       .  S
C2064      C2065   1.413       .  A
C2064      C2080   1.452       .  S
C2065      C2066   1.413       .  A
C2066      C2069   1.451       .  S
C2067      C2070   1.409       .  A
C2067      C2074   1.408       .  A
C2068      N2085   1.157       .  T
C2069      N2087   1.157       .  T
C2070      C2071   1.413       .  A
C2070      C2075   1.450       .  S
C2071      C2072   1.417       .  A
C2071      C2077   1.449       .  S
C2072      C2073   1.421       .  A
C2073      C2074   1.409       .  A
C2073      C2076   1.452       .  S
C2074      C2078   1.453       .  S
C2075      N2082   1.157       .  T
C2076      N2083   1.158       .  T
C2077      N2081   1.157       .  T
C2078      N2084   1.157       .  T
C2079      N2088   1.157       .  T
C2080      N2086   1.158       .  T
C2089      C2090   1.412       .  A
C2089      C2094   1.409       .  A
C2089      C2107   1.450       .  S
C2090      C2091   1.412       .  A
C2090      C2095   1.498       .  S
C2091      C2092   1.411       .  A
C2091      C2096   1.450       .  S
C2092      C2093   1.411       .  A
C2092      C2108   1.450       .  S
C2093      C2094   1.411       .  A
C2094      C2097   1.452       .  S
C2095      C2098   1.411       .  A
C2095      C2102   1.409       .  A
C2096      N2113   1.157       .  T
C2097      N2115   1.157       .  T
C2098      C2099   1.413       .  A
C2098      C2103   1.451       .  S
C2099      C2100   1.416       .  A
C2099      C2105   1.450       .  S
C2100      C2101   1.420       .  A
C2101      C2102   1.411       .  A
C2101      C2104   1.452       .  S
C2102      C2106   1.451       .  S
C2103      N2110   1.157       .  T
C2104      N2111   1.157       .  T
C2105      N2109   1.157       .  T
C2106      N2112   1.157       .  T
C2107      N2116   1.157       .  T
C2108      N2114   1.157       .  T
C2117      C2118   1.412       .  A
C2117      C2122   1.410       .  A
C2117      C2135   1.451       .  S
C2118      C2119   1.410       .  A
C2118      C2123   1.493       .  S
C2119      C2120   1.407       .  A
C2119      C2124   1.451       .  S
C2120      C2121   1.414       .  A
C2120      C2136   1.451       .  S
C2121      C2122   1.412       .  A
C2122      C2125   1.451       .  S
C2123      C2126   1.412       .  A
C2123      C2130   1.409       .  A
C2124      N2141   1.157       .  T
C2125      N2143   1.157       .  T
C2126      C2127   1.411       .  A
C2126      C2131   1.451       .  S
C2127      C2128   1.414       .  A
C2127      C2133   1.450       .  S
C2128      C2129   1.416       .  A
C2129      C2130   1.407       .  A
C2129      C2132   1.451       .  S
C2130      C2134   1.451       .  S
C2131      N2138   1.157       .  T
C2132      N2139   1.157       .  T
C2133      N2137   1.157       .  T
C2134      N2140   1.157       .  T
C2135      N2144   1.157       .  T
C2136      N2142   1.157       .  T
C2145      C2146   1.410       .  A
C2145      C2150   1.409       .  A
C2145      C2163   1.451       .  S
C2146      C2147   1.410       .  A
C2146      C2151   1.492   1_556  S
C2147      C2148   1.408       .  A
C2147      C2152   1.451       .  S
C2148      C2149   1.415       .  A
C2148      C2164   1.452       .  S
C2149      C2150   1.414       .  A
C2150      C2153   1.450       .  S
C2151      C2154   1.407       .  A
C2151      C2158   1.408       .  A
C2152      N2169   1.157   1_556  T
C2153      N2171   1.157       .  T
C2154      C2155   1.407       .  A
C2154      C2159   1.453       .  S
C2155      C2156   1.421       .  A
C2155      C2161   1.451       .  S
C2156      C2157   1.420       .  A
C2157      C2158   1.413       .  A
C2157      C2160   1.450       .  S
C2158      C2162   1.451       .  S
C2159      N2166   1.157       .  T
C2160      N2167   1.157       .  T
C2161      N2165   1.157       .  T
C2162      N2168   1.157       .  T
C2163      N2172   1.157   1_556  T
C2164      N2170   1.157       .  T
C2173      C2174   1.411       .  A
C2173      C2178   1.414       .  A
C2173      C2191   1.450       .  S
C2174      C2175   1.409       .  A
C2174      C2179   1.498       .  S
C2175      C2176   1.409       .  A
C2175      C2180   1.451       .  S
C2176      C2177   1.419       .  A
C2176      C2192   1.453       .  S
C2177      C2178   1.416       .  A
C2178      C2181   1.450       .  S
C2179      C2182   1.410       .  A
C2179      C2186   1.412       .  A
C2180      N2197   1.157       .  T
C2181      N2199   1.157       .  T
C2182      C2183   1.409       .  A
C2182      C2187   1.451       .  S
C2183      C2184   1.414       .  A
C2183      C2189   1.451       .  S
C2184      C2185   1.413       .  A
C2185      C2186   1.414       .  A
C2185      C2188   1.450       .  S
C2186      C2190   1.450       .  S
C2187      N2194   1.157       .  T
C2188      N2195   1.157       .  T
C2189      N2193   1.157       .  T
C2190      N2196   1.157       .  T
C2191      N2200   1.157       .  T
C2192      N2198   1.157       .  T
C2201      C2202   1.411       .  A
C2201      C2206   1.412       .  A
C2201      C2219   1.450       .  S
C2202      C2203   1.410       .  A
C2202      C2207   1.495       .  S
C2203      C2204   1.409       .  A
C2203      C2208   1.452       .  S
C2204      C2205   1.415       .  A
C2204      C2220   1.451       .  S
C2205      C2206   1.415       .  A
C2206      C2209   1.451       .  S
C2207      C2210   1.412       .  A
C2207      C2214   1.409       .  A
C2208      N2225   1.157       .  T
C2209      N2227   1.157       .  T
C2210      C2211   1.414       .  A
C2210      C2215   1.450       .  S
C2211      C2212   1.413       .  A
C2211      C2217   1.450       .  S
C2212      C2213   1.415       .  A
C2213      C2214   1.407       .  A
C2213      C2216   1.452       .  S
C2214      C2218   1.451       .  S
C2215      N2222   1.157       .  T
C2216      N2223   1.157       .  T
C2217      N2221   1.157       .  T
C2218      N2224   1.157       .  T
C2219      N2228   1.157       .  T
C2220      N2226   1.157       .  T
C2229      C2230   1.412       .  A
C2229      C2234   1.417       .  A
C2229      C2247   1.450       .  S
C2230      C2231   1.411       .  A
C2230      C2235   1.505   1_655  S
C2231      C2232   1.410       .  A
C2231      C2236   1.453       .  S
C2232      C2233   1.420       .  A
C2232      C2248   1.452       .  S
C2233      C2234   1.419       .  A
C2234      C2237   1.451       .  S
C2235      C2238   1.413       .  A
C2235      C2242   1.415       .  A
C2236      N2253   1.157   1_655  T
C2237      N2255   1.157       .  T
C2238      C2239   1.412       .  A
C2238      C2243   1.450       .  S
C2239      C2240   1.411       .  A
C2239      C2245   1.450       .  S
C2240      C2241   1.410       .  A
C2241      C2242   1.413       .  A
C2241      C2244   1.450       .  S
C2242      C2246   1.450       .  S
C2243      N2250   1.157       .  T
C2244      N2251   1.157       .  T
C2245      N2249   1.157       .  T
C2246      N2252   1.157   1_455  T
C2247      N2256   1.157       .  T
C2248      N2254   1.158       .  T
C2257      C2258   1.409       .  A
C2257      C2262   1.413       .  A
C2257      C2275   1.451       .  S
C2258      C2259   1.410       .  A
C2258      C2263   1.502       .  S
C2259      C2260   1.416       .  A
C2259      C2264   1.451       .  S
C2260      C2261   1.421       .  A
C2260      C2276   1.450       .  S
C2261      C2262   1.420       .  A
C2262      C2265   1.451       .  S
C2263      C2266   1.412       .  A
C2263      C2270   1.411       .  A
C2264      N2281   1.157       .  T
C2265      N2283   1.157       .  T
C2266      C2267   1.413       .  A
C2266      C2271   1.450       .  S
C2267      C2268   1.415       .  A
C2267      C2273   1.452       .  S
C2268      C2269   1.413       .  A
C2269      C2270   1.412       .  A
C2269      C2272   1.450       .  S
C2270      C2274   1.450       .  S
C2271      N2278   1.157       .  T
C2272      N2279   1.157       .  T
C2273      N2277   1.158       .  T
C2274      N2280   1.157       .  T
C2275      N2284   1.157       .  T
C2276      N2282   1.157       .  T
C2285      C2286   1.410       .  A
C2285      C2290   1.411       .  A
C2285      C2303   1.451       .  S
C2286      C2287   1.412       .  A
C2286      C2291   1.498       .  S
C2287      C2288   1.412       .  A
C2287      C2292   1.450       .  S
C2288      C2289   1.413       .  A
C2288      C2304   1.450       .  S
C2289      C2290   1.417       .  A
C2290      C2293   1.452       .  S
C2291      C2294   1.410       .  A
C2291      C2298   1.412       .  A
C2292      N2309   1.157       .  T
C2293      N2311   1.157       .  T
C2294      C2295   1.409       .  A
C2294      C2299   1.451       .  S
C2295      C2296   1.415       .  A
C2295      C2301   1.451       .  S
C2296      C2297   1.415       .  A
C2297      C2298   1.414       .  A
C2297      C2300   1.451       .  S
C2298      C2302   1.450       .  S
C2299      N2306   1.157       .  T
C2300      N2307   1.157       .  T
C2301      N2305   1.157       .  T
C2302      N2308   1.157       .  T
C2303      N2312   1.157       .  T
C2304      N2310   1.157       .  T
C2313      C2314   1.412       .  A
C2313      C2318   1.417       .  A
C2313      C2331   1.450       .  S
C2314      C2315   1.410       .  A
C2314      C2319   1.505       .  S
C2315      C2316   1.412       .  A
C2315      C2320   1.452       .  S
C2316      C2317   1.421       .  A
C2316      C2332   1.452       .  S
C2317      C2318   1.417       .  A
C2318      C2321   1.450       .  S
C2319      C2322   1.413       .  A
C2319      C2326   1.413       .  A
C2320      N2337   1.157       .  T
C2321      N2339   1.157       .  T
C2322      C2323   1.413       .  A
C2322      C2327   1.451       .  S
C2323      C2324   1.415   1_565  A
C2323      C2329   1.451   1_565  S
C2324      C2325   1.414   1_545  A
C2325      C2326   1.414       .  A
C2325      C2328   1.450   1_565  S
C2326      C2330   1.450       .  S
C2327      N2334   1.157       .  T
C2328      N2335   1.157       .  T
C2329      N2333   1.157       .  T
C2330      N2336   1.157       .  T
C2331      N2340   1.157       .  T
C2332      N2338   1.158       .  T
C2341      C2342   1.409       .  A
C2341      C2346   1.407       .  A
C2341      C2359   1.451       .  S
C2342      C2343   1.410       .  A
C2342      C2347   1.490       .  S
C2343      C2344   1.409       .  A
C2343      C2348   1.450       .  S
C2344      C2345   1.412       .  A
C2344      C2360   1.451       .  S
C2345      C2346   1.414       .  A
C2346      C2349   1.452       .  S
C2347      C2350   1.408       .  A
C2347      C2354   1.409       .  A
C2348      N2365   1.157       .  T
C2349      N2367   1.157       .  T
C2350      C2351   1.409       .  A
C2350      C2355   1.452       .  S
C2351      C2352   1.417       .  A
C2351      C2357   1.451       .  S
C2352      C2353   1.416       .  A
C2353      C2354   1.410       .  A
C2353      C2356   1.451       .  S
C2354      C2358   1.451       .  S
C2355      N2362   1.157       .  T
C2356      N2363   1.157       .  T
C2357      N2361   1.157       .  T
C2358      N2364   1.157       .  T
C2359      N2368   1.157       .  T
C2360      N2366   1.157       .  T
C2369      C2370   1.409       .  A
C2369      C2374   1.408       .  A
C2369      C2387   1.452       .  S
C2370      C2371   1.406       .  A
C2370      C2375   1.485       .  S
C2371      C2372   1.406       .  A
C2371      C2376   1.451       .  S
C2372      C2373   1.419       .  A
C2372      C2388   1.452       .  S
C2373      C2374   1.416       .  A
C2374      C2377   1.451       .  S
C2375      C2378   1.409       .  A
C2375      C2382   1.408       .  A
C2376      N2393   1.157       .  T
C2377      N2395   1.157       .  T
C2378      C2379   1.407       .  A
C2378      C2383   1.451       .  S
C2379      C2380   1.414       .  A
C2379      C2385   1.451       .  S
C2380      C2381   1.416       .  A
C2381      C2382   1.405       .  A
C2381      C2384   1.453       .  S
C2382      C2386   1.451       .  S
C2383      N2390   1.157       .  T
C2384      N2391   1.158       .  T
C2385      N2389   1.157       .  T
C2386      N2392   1.157       .  T
C2387      N2396   1.157       .  T
C2388      N2394   1.157       .  T
C2397      C2398   1.410       .  A
C2397      C2402   1.410       .  A
C2397      C2415   1.450       .  S
C2398      C2399   1.409       .  A
C2398      C2403   1.488   1_556  S
C2399      C2400   1.405       .  A
C2399      C2404   1.451       .  S
C2400      C2401   1.414       .  A
C2400      C2416   1.452       .  S
C2401      C2402   1.413       .  A
C2402      C2405   1.450       .  S
C2403      C2406   1.409       .  A
C2403      C2410   1.408       .  A
C2404      N2421   1.157       .  T
C2405      N2423   1.157       .  T
C2406      C2407   1.405       .  A
C2406      C2411   1.452   1_554  S
C2407      C2408   1.415       .  A
C2407      C2413   1.452       .  S
C2408      C2409   1.417       .  A
C2409      C2410   1.410       .  A
C2409      C2412   1.451       .  S
C2410      C2414   1.451       .  S
C2411      N2418   1.157       .  T
C2412      N2419   1.157       .  T
C2413      N2417   1.157       .  T
C2414      N2420   1.157       .  T
C2415      N2424   1.157       .  T
C2416      N2422   1.157       .  T
C2425      C2426   1.409       .  A
C2425      C2430   1.406       .  A
C2425      C2443   1.452       .  S
C2426      C2427   1.410       .  A
C2426      C2431   1.491       .  S
C2427      C2428   1.411       .  A
C2427      C2432   1.450       .  S
C2428      C2429   1.415       .  A
C2428      C2444   1.451       .  S
C2429      C2430   1.417       .  A
C2430      C2433   1.453       .  S
C2431      C2434   1.408       .  A
C2431      C2438   1.410       .  A
C2432      N2449   1.157       .  T
C2433      N2451   1.157       .  T
C2434      C2435   1.408       .  A
C2434      C2439   1.451       .  S
C2435      C2436   1.416       .  A
C2435      C2441   1.452       .  S
C2436      C2437   1.413       .  A
C2437      C2438   1.411       .  A
C2437      C2440   1.450       .  S
C2438      C2442   1.451       .  S
C2439      N2446   1.157       .  T
C2440      N2447   1.157       .  T
C2441      N2445   1.157       .  T
C2442      N2448   1.157       .  T
C2443      N2452   1.157       .  T
C2444      N2450   1.157       .  T
C2453      C2454   1.410       .  A
C2453      C2458   1.413       .  A
C2453      C2471   1.451       .  S
C2454      C2455   1.413       .  A
C2454      C2459   1.502       .  S
C2455      C2456   1.413       .  A
C2455      C2460   1.450       .  S
C2456      C2457   1.413       .  A
C2456      C2472   1.450       .  S
C2457      C2458   1.417       .  A
C2458      C2461   1.451       .  S
C2459      C2462   1.409       .  A
C2459      C2466   1.411       .  A
C2460      N2477   1.157       .  T
C2461      N2479   1.157       .  T
C2462      C2463   1.412       .  A
C2462      C2467   1.451       .  S
C2463      C2464   1.422       .  A
C2463      C2469   1.452       .  S
C2464      C2465   1.418       .  A
C2465      C2466   1.414       .  A
C2465      C2468   1.450       .  S
C2466      C2470   1.450       .  S
C2467      N2474   1.157       .  T
C2468      N2475   1.157       .  T
C2469      N2473   1.158       .  T
C2470      N2476   1.157       .  T
C2471      N2480   1.157       .  T
C2472      N2478   1.157       .  T
C2481      C2482   1.411       .  A
C2481      C2486   1.417       .  A
C2481      C2499   1.449       .  S
C2482      C2483   1.409       .  A
C2482      C2487   1.505   1_556  S
C2483      C2484   1.413       .  A
C2483      C2488   1.451       .  S
C2484      C2485   1.421       .  A
C2484      C2500   1.451       .  S
C2485      C2486   1.419       .  A
C2486      C2489   1.450       .  S
C2487      C2490   1.413       .  A
C2487      C2494   1.413       .  A
C2488      N2505   1.157   1_556  T
C2489      N2507   1.157       .  T
C2490      C2491   1.413       .  A
C2490      C2495   1.451       .  S
C2491      C2492   1.413       .  A
C2491      C2497   1.451       .  S
C2492      C2493   1.414       .  A
C2493      C2494   1.416       .  A
C2493      C2496   1.450       .  S
C2494      C2498   1.449       .  S
C2495      N2502   1.157       .  T
C2496      N2503   1.157       .  T
C2497      N2501   1.157       .  T
C2498      N2504   1.157       .  T
C2499      N2508   1.157   1_556  T
C2500      N2506   1.157       .  T
C2509      C2510   1.410       .  A
C2509      C2514   1.409       .  A
C2509      C2527   1.450       .  S
C2510      C2511   1.411       .  A
C2510      C2515   1.495       .  S
C2511      C2512   1.412       .  A
C2511      C2516   1.451       .  S
C2512      C2513   1.415       .  A
C2512      C2528   1.451       .  S
C2513      C2514   1.414       .  A
C2514      C2517   1.451       .  S
C2515      C2518   1.411       .  A
C2515      C2522   1.411       .  A
C2516      N2533   1.157       .  T
C2517      N2535   1.157       .  T
C2518      C2519   1.412       .  A
C2518      C2523   1.450       .  S
C2519      C2520   1.416       .  A
C2519      C2525   1.452       .  S
C2520      C2521   1.411       .  A
C2521      C2522   1.408       .  A
C2521      C2524   1.450       .  S
C2522      C2526   1.451       .  S
C2523      N2530   1.157       .  T
C2524      N2531   1.157       .  T
C2525      N2529   1.158       .  T
C2526      N2532   1.157       .  T
C2527      N2536   1.157       .  T
C2528      N2534   1.157       .  T
C2537      C2538   1.407       .  A
C2537      C2542   1.405       .  A
C2537      C2555   1.452       .  S
C2538      C2539   1.405       .  A
C2538      C2543   1.479       .  S
C2539      C2540   1.404       .  A
C2539      C2544   1.452       .  S
C2540      C2541   1.418       .  A
C2540      C2556   1.451       .  S
C2541      C2542   1.418       .  A
C2542      C2545   1.451       .  S
C2543      C2546   1.407       .  A
C2543      C2550   1.410       .  A
C2544      N2561   1.157       .  T
C2545      N2563   1.157       .  T
C2546      C2547   1.401       .  A
C2546      C2551   1.451       .  S
C2547      C2548   1.414       .  A
C2547      C2553   1.454       .  S
C2548      C2549   1.410       .  A
C2549      C2550   1.405       .  A
C2549      C2552   1.451       .  S
C2550      C2554   1.451       .  S
C2551      N2558   1.157       .  T
C2552      N2559   1.157       .  T
C2553      N2557   1.158       .  T
C2554      N2560   1.157       .  T
C2555      N2564   1.157       .  T
C2556      N2562   1.157       .  T
C2565      C2566   1.411       .  A
C2565      C2570   1.410       .  A
C2565      C2583   1.450       .  S
C2566      C2567   1.411       .  A
C2566      C2571   1.494       .  S
C2567      C2568   1.407       .  A
C2567      C2572   1.451       .  S
C2568      C2569   1.413       .  A
C2568      C2584   1.452       .  S
C2569      C2570   1.416       .  A
C2570      C2573   1.452       .  S
C2571      C2574   1.411       .  A
C2571      C2578   1.411       .  A
C2572      N2589   1.157       .  T
C2573      N2591   1.158       .  T
C2574      C2575   1.407   1_565  A
C2574      C2579   1.451       .  S
C2575      C2576   1.412       .  A
C2575      C2581   1.452       .  S
C2576      C2577   1.414       .  A
C2577      C2578   1.412   1_545  A
C2577      C2580   1.450       .  S
C2578      C2582   1.450       .  S
C2579      N2586   1.157       .  T
C2580      N2587   1.157       .  T
C2581      N2585   1.157       .  T
C2582      N2588   1.157       .  T
C2583      N2592   1.157       .  T
C2584      N2590   1.157       .  T
C2593      C2594   1.409       .  A
C2593      C2598   1.408       .  A
C2593      C2611   1.451       .  S
C2594      C2595   1.409       .  A
C2594      C2599   1.488       .  S
C2595      C2596   1.407       .  A
C2595      C2600   1.451       .  S
C2596      C2597   1.412       .  A
C2596      C2612   1.451       .  S
C2597      C2598   1.413       .  A
C2598      C2601   1.451       .  S
C2599      C2602   1.408       .  A
C2599      C2606   1.413       .  A
C2600      N2617   1.157       .  T
C2601      N2619   1.157       .  T
C2602      C2603   1.406       .  A
C2602      C2607   1.450       .  S
C2603      C2604   1.412       .  A
C2603      C2609   1.452       .  S
C2604      C2605   1.408       .  A
C2605      C2606   1.409       .  A
C2605      C2608   1.450       .  S
C2606      C2610   1.451       .  S
C2607      N2614   1.157       .  T
C2608      N2615   1.157       .  T
C2609      N2613   1.157       .  T
C2610      N2616   1.157       .  T
C2611      N2620   1.157       .  T
C2612      N2618   1.157       .  T
C2621      C2622   1.409       .  A
C2621      C2626   1.407       .  A
C2621      C2639   1.451       .  S
C2622      C2623   1.410       .  A
C2622      C2627   1.494       .  S
C2623      C2624   1.412       .  A
C2623      C2628   1.451       .  S
C2624      C2625   1.417       .  A
C2624      C2640   1.451       .  S
C2625      C2626   1.418       .  A
C2626      C2629   1.453       .  S
C2627      C2630   1.409       .  A
C2627      C2634   1.411       .  A
C2628      N2645   1.157       .  T
C2629      N2647   1.157       .  T
C2630      C2631   1.409       .  A
C2630      C2635   1.451       .  S
C2631      C2632   1.415       .  A
C2631      C2637   1.450       .  S
C2632      C2633   1.415       .  A
C2633      C2634   1.411       .  A
C2633      C2636   1.451       .  S
C2634      C2638   1.451       .  S
C2635      N2642   1.157       .  T
C2636      N2643   1.157       .  T
C2637      N2641   1.157       .  T
C2638      N2644   1.157       .  T
C2639      N2648   1.157       .  T
C2640      N2646   1.157       .  T
C2649      C2650   1.411       .  A
C2649      C2654   1.415       .  A
C2649      C2667   1.450       .  S
C2650      C2651   1.410       .  A
C2650      C2655   1.497   1_655  S
C2651      C2652   1.408       .  A
C2651      C2656   1.451       .  S
C2652      C2653   1.413       .  A
C2652      C2668   1.451       .  S
C2653      C2654   1.416       .  A
C2654      C2657   1.450       .  S
C2655      C2658   1.410       .  A
C2655      C2662   1.410       .  A
C2656      N2673   1.157   1_655  T
C2657      N2675   1.157       .  T
C2658      C2659   1.410       .  A
C2658      C2663   1.451       .  S
C2659      C2660   1.417       .  A
C2659      C2665   1.452       .  S
C2660      C2661   1.417       .  A
C2661      C2662   1.412       .  A
C2661      C2664   1.451       .  S
C2662      C2666   1.450       .  S
C2663      N2670   1.157       .  T
C2664      N2671   1.157       .  T
C2665      N2669   1.157       .  T
C2666      N2672   1.157       .  T
C2667      N2676   1.157       .  T
C2668      N2674   1.157       .  T
C2677      C2678   1.409       .  A
C2677      C2682   1.409       .  A
C2677      C2695   1.452       .  S
C2678      C2679   1.410       .  A
C2678      C2683   1.494       .  S
C2679      C2680   1.412       .  A
C2679      C2684   1.451       .  S
C2680      C2681   1.415       .  A
C2680      C2696   1.450       .  S
C2681      C2682   1.418       .  A
C2682      C2685   1.452       .  S
C2683      C2686   1.412       .  A
C2683      C2690   1.412       .  A
C2684      N2701   1.157       .  T
C2685      N2703   1.157       .  T
C2686      C2687   1.410       .  A
C2686      C2691   1.450       .  S
C2687      C2688   1.411       .  A
C2687      C2693   1.450       .  S
C2688      C2689   1.410       .  A
C2689      C2690   1.408       .  A
C2689      C2692   1.451       .  S
C2690      C2694   1.450       .  S
C2691      N2698   1.157       .  T
C2692      N2699   1.157       .  T
C2693      N2697   1.157       .  T
C2694      N2700   1.157       .  T
C2695      N2704   1.157       .  T
C2696      N2702   1.157       .  T
C2705      C2706   1.411       .  A
C2705      C2710   1.410       .  A
C2705      C2723   1.451       .  S
C2706      C2707   1.409       .  A
C2706      C2711   1.491       .  S
C2707      C2708   1.407       .  A
C2707      C2712   1.452       .  S
C2708      C2709   1.416       .  A
C2708      C2724   1.451       .  S
C2709      C2710   1.413       .  A
C2710      C2713   1.451       .  S
C2711      C2714   1.411       .  A
C2711      C2718   1.411       .  A
C2712      N2729   1.157       .  T
C2713      N2731   1.157       .  T
C2714      C2715   1.407       .  A
C2714      C2719   1.452       .  S
C2715      C2716   1.414       .  A
C2715      C2721   1.451       .  S
C2716      C2717   1.413       .  A
C2717      C2718   1.408       .  A
C2717      C2720   1.452       .  S
C2718      C2722   1.450       .  S
C2719      N2726   1.157       .  T
C2720      N2727   1.157       .  T
C2721      N2725   1.157       .  T
C2722      N2728   1.157       .  T
C2723      N2732   1.157       .  T
C2724      N2730   1.157       .  T
C2733      C2734   1.410       .  A
C2733      C2738   1.413       .  A
C2733      C2751   1.450       .  S
C2734      C2735   1.409       .  A
C2734      C2739   1.495       .  S
C2735      C2736   1.408       .  A
C2735      C2740   1.451       .  S
C2736      C2737   1.416       .  A
C2736      C2752   1.451       .  S
C2737      C2738   1.416       .  A
C2738      C2741   1.450       .  S
C2739      C2742   1.409       .  A
C2739      C2746   1.408       .  A
C2740      N2757   1.157       .  T
C2741      N2759   1.157       .  T
C2742      C2743   1.414   1_565  A
C2742      C2747   1.450       .  S
C2743      C2744   1.420       .  A
C2743      C2749   1.450       .  S
C2744      C2745   1.419       .  A
C2745      C2746   1.408   1_545  A
C2745      C2748   1.452       .  S
C2746      C2750   1.452       .  S
C2747      N2754   1.157       .  T
C2748      N2755   1.157       .  T
C2749      N2753   1.157       .  T
C2750      N2756   1.157       .  T
C2751      N2760   1.157       .  T
C2752      N2758   1.157       .  T
C2761      C2762   1.410       .  A
C2761      C2766   1.409       .  A
C2761      C2779   1.451       .  S
C2762      C2763   1.410       .  A
C2762      C2767   1.492       .  S
C2763      C2764   1.410       .  A
C2763      C2768   1.450       .  S
C2764      C2765   1.413       .  A
C2764      C2780   1.451       .  S
C2765      C2766   1.413       .  A
C2766      C2769   1.451       .  S
C2767      C2770   1.409       .  A
C2767      C2774   1.409       .  A
C2768      N2785   1.157       .  T
C2769      N2787   1.157       .  T
C2770      C2771   1.408       .  A
C2770      C2775   1.452       .  S
C2771      C2772   1.416       .  A
C2771      C2777   1.451       .  S
C2772      C2773   1.417       .  A
C2773      C2774   1.411       .  A
C2773      C2776   1.451       .  S
C2774      C2778   1.450       .  S
C2775      N2782   1.157       .  T
C2776      N2783   1.157       .  T
C2777      N2781   1.157       .  T
C2778      N2784   1.157       .  T
C2779      N2788   1.157       .  T
C2780      N2786   1.157       .  T
C2789      C2790   1.412       .  A
C2789      C2794   1.412       .  A
C2789      C2807   1.450       .  S
C2790      C2791   1.411       .  A
C2790      C2795   1.496       .  S
C2791      C2792   1.408       .  A
C2791      C2796   1.451       .  S
C2792      C2793   1.414       .  A
C2792      C2808   1.453       .  S
C2793      C2794   1.413       .  A
C2794      C2797   1.450       .  S
C2795      C2798   1.410       .  A
C2795      C2802   1.406       .  A
C2796      N2813   1.157       .  T
C2797      N2815   1.157       .  T
C2798      C2799   1.414       .  A
C2798      C2803   1.451       .  S
C2799      C2800   1.420       .  A
C2799      C2805   1.450       .  S
C2800      C2801   1.423       .  A
C2801      C2802   1.409       .  A
C2801      C2804   1.452       .  S
C2802      C2806   1.452       .  S
C2803      N2810   1.157       .  T
C2804      N2811   1.157       .  T
C2805      N2809   1.157       .  T
C2806      N2812   1.157       .  T
C2807      N2816   1.157       .  T
C2808      N2814   1.157       .  T
C2817      C2818   1.410       .  A
C2817      C2822   1.412       .  A
C2817      C2835   1.450       .  S
C2818      C2819   1.409       .  A
C2818      C2823   1.493   1_655  S
C2819      C2820   1.407       .  A
C2819      C2824   1.452       .  S
C2820      C2821   1.417       .  A
C2820      C2836   1.452       .  S
C2821      C2822   1.415       .  A
C2822      C2825   1.450       .  S
C2823      C2826   1.410       .  A
C2823      C2830   1.410       .  A
C2824      N2841   1.157       .  T
C2825      N2843   1.157       .  T
C2826      C2827   1.408       .  A
C2826      C2831   1.451       .  S
C2827      C2828   1.414       .  A
C2827      C2833   1.452       .  S
C2828      C2829   1.413       .  A
C2829      C2830   1.412       .  A
C2829      C2832   1.450       .  S
C2830      C2834   1.450       .  S
C2831      N2838   1.157   1_455  T
C2832      N2839   1.157       .  T
C2833      N2837   1.157       .  T
C2834      N2840   1.157   1_455  T
C2835      N2844   1.157       .  T
C2836      N2842   1.157       .  T
C2845      C2846   1.408       .  A
C2845      C2850   1.406       .  A
C2845      C2863   1.451       .  S
C2846      C2847   1.410       .  A
C2846      C2851   1.486       .  S
C2847      C2848   1.406       .  A
C2847      C2852   1.451       .  S
C2848      C2849   1.413       .  A
C2848      C2864   1.452       .  S
C2849      C2850   1.415       .  A
C2850      C2853   1.452       .  S
C2851      C2854   1.407       .  A
C2851      C2858   1.405       .  A
C2852      N2869   1.157       .  T
C2853      N2871   1.157       .  T
C2854      C2855   1.409       .  A
C2854      C2859   1.452       .  S
C2855      C2856   1.420       .  A
C2855      C2861   1.452       .  S
C2856      C2857   1.420       .  A
C2857      C2858   1.406       .  A
C2857      C2860   1.452       .  S
C2858      C2862   1.452       .  S
C2859      N2866   1.157       .  T
C2860      N2867   1.157       .  T
C2861      N2865   1.158       .  T
C2862      N2868   1.157       .  T
C2863      N2872   1.157       .  T
C2864      N2870   1.157       .  T
C2873      C2874   1.413       .  A
C2873      C2878   1.412       .  A
C2873      C2891   1.450       .  S
C2874      C2875   1.414       .  A
C2874      C2879   1.501       .  S
C2875      C2876   1.411       .  A
C2875      C2880   1.450       .  S
C2876      C2877   1.410       .  A
C2876      C2892   1.451       .  S
C2877      C2878   1.411       .  A
C2878      C2881   1.451       .  S
C2879      C2882   1.412       .  A
C2879      C2886   1.411       .  A
C2880      N2897   1.157       .  T
C2881      N2899   1.157       .  T
C2882      C2883   1.413       .  A
C2882      C2887   1.450       .  S
C2883      C2884   1.416       .  A
C2883      C2889   1.451       .  S
C2884      C2885   1.417       .  A
C2885      C2886   1.411       .  A
C2885      C2888   1.451       .  S
C2886      C2890   1.451       .  S
C2887      N2894   1.157       .  T
C2888      N2895   1.157       .  T
C2889      N2893   1.157       .  T
C2890      N2896   1.157       .  T
C2891      N2900   1.157       .  T
C2892      N2898   1.157       .  T
C2901      C2902   1.410       .  A
C2901      C2906   1.412       .  A
C2901      C2919   1.451       .  S
C2902      C2903   1.409       .  A
C2902      C2907   1.493   1_556  S
C2903      C2904   1.407       .  A
C2903      C2908   1.452       .  S
C2904      C2905   1.418       .  A
C2904      C2920   1.452       .  S
C2905      C2906   1.416       .  A
C2906      C2909   1.450       .  S
C2907      C2910   1.410       .  A
C2907      C2914   1.411       .  A
C2908      N2925   1.157   1_556  T
C2909      N2927   1.157       .  T
C2910      C2911   1.411       .  A
C2910      C2915   1.450       .  S
C2911      C2912   1.416       .  A
C2911      C2917   1.452       .  S
C2912      C2913   1.413       .  A
C2913      C2914   1.407       .  A
C2913      C2916   1.452       .  S
C2914      C2918   1.452       .  S
C2915      N2922   1.157       .  T
C2916      N2923   1.157       .  T
C2917      N2921   1.158       .  T
C2918      N2924   1.157   1_554  T
C2919      N2928   1.157       .  T
C2920      N2926   1.157       .  T
C2929      C2930   1.409       .  A
C2929      C2934   1.409       .  A
C2929      C2947   1.451       .  S
C2930      C2931   1.411       .  A
C2930      C2935   1.493       .  S
C2931      C2932   1.411       .  A
C2931      C2936   1.452       .  S
C2932      C2933   1.416       .  A
C2932      C2948   1.450       .  S
C2933      C2934   1.415       .  A
C2934      C2937   1.451       .  S
C2935      C2938   1.411       .  A
C2935      C2942   1.413       .  A
C2936      N2953   1.157       .  T
C2937      N2955   1.157       .  T
C2938      C2939   1.407       .  A
C2938      C2943   1.450       .  S
C2939      C2940   1.410       .  A
C2939      C2945   1.451       .  S
C2940      C2941   1.409       .  A
C2941      C2942   1.409       .  A
C2941      C2944   1.451       .  S
C2942      C2946   1.450       .  S
C2943      N2950   1.157       .  T
C2944      N2951   1.157       .  T
C2945      N2949   1.157       .  T
C2946      N2952   1.157       .  T
C2947      N2956   1.157       .  T
C2948      N2954   1.157       .  T
C2957      C2958   1.411       .  A
C2957      C2962   1.410       .  A
C2957      C2975   1.451       .  S
C2958      C2959   1.410       .  A
C2958      C2963   1.492       .  S
C2959      C2960   1.409       .  A
C2959      C2964   1.451       .  S
C2960      C2961   1.412       .  A
C2960      C2976   1.451       .  S
C2961      C2962   1.411       .  A
C2962      C2965   1.450       .  S
C2963      C2966   1.412       .  A
C2963      C2970   1.410       .  A
C2964      N2981   1.157       .  T
C2965      N2983   1.157       .  T
C2966      C2967   1.409       .  A
C2966      C2971   1.450       .  S
C2967      C2968   1.409       .  A
C2967      C2973   1.450       .  S
C2968      C2969   1.414       .  A
C2969      C2970   1.409       .  A
C2969      C2972   1.452       .  S
C2970      C2974   1.450       .  S
C2971      N2978   1.157       .  T
C2972      N2979   1.157       .  T
C2973      N2977   1.157       .  T
C2974      N2980   1.157       .  T
C2975      N2984   1.157       .  T
C2976      N2982   1.157       .  T
C2985      C2986   1.410       .  A
C2985      C2990   1.410       .  A
C2985      C3003   1.450       .  S
C2986      C2987   1.411       .  A
C2986      C2991   1.497   1_655  S
C2987      C2988   1.412       .  A
C2987      C2992   1.451       .  S
C2988      C2989   1.415       .  A
C2988      C3004   1.450       .  S
C2989      C2990   1.415       .  A
C2990      C2993   1.451       .  S
C2991      C2994   1.411       .  A
C2991      C2998   1.412       .  A
C2992      N3009   1.157       .  T
C2993      N3011   1.157       .  T
C2994      C2995   1.412       .  A
C2994      C2999   1.450       .  S
C2995      C2996   1.414       .  A
C2995      C3001   1.450       .  S
C2996      C2997   1.413       .  A
C2997      C2998   1.410       .  A
C2997      C3000   1.451       .  S
C2998      C3002   1.451       .  S
C2999      N3006   1.157       .  T
C3000      N3007   1.157       .  T
C3001      N3005   1.157       .  T
C3002      N3008   1.157   1_455  T
C3003      N3012   1.157   1_655  T
C3004      N3010   1.157       .  T
C3013      C3014   1.410       .  A
C3013      C3018   1.414       .  A
C3013      C3031   1.450       .  S
C3014      C3015   1.409       .  A
C3014      C3019   1.500       .  S
C3015      C3016   1.413       .  A
C3015      C3020   1.451       .  S
C3016      C3017   1.419       .  A
C3016      C3032   1.451       .  S
C3017      C3018   1.419       .  A
C3018      C3021   1.451       .  S
C3019      C3022   1.410       .  A
C3019      C3026   1.413       .  A
C3020      N3037   1.157       .  T
C3021      N3039   1.157       .  T
C3022      C3023   1.411       .  A
C3022      C3027   1.450       .  S
C3023      C3024   1.415       .  A
C3023      C3029   1.451       .  S
C3024      C3025   1.412       .  A
C3025      C3026   1.413       .  A
C3025      C3028   1.451       .  S
C3026      C3030   1.449       .  S
C3027      N3034   1.157       .  T
C3028      N3035   1.157       .  T
C3029      N3033   1.157       .  T
C3030      N3036   1.157       .  T
C3031      N3040   1.157       .  T
C3032      N3038   1.157       .  T
C3041      C3042   1.410       .  A
C3041      C3046   1.410       .  A
C3041      C3059   1.450       .  S
C3042      C3043   1.411       .  A
C3042      C3047   1.492       .  S
C3043      C3044   1.409       .  A
C3043      C3048   1.451       .  S
C3044      C3045   1.411       .  A
C3044      C3060   1.450       .  S
C3045      C3046   1.414       .  A
C3046      C3049   1.451       .  S
C3047      C3050   1.408       .  A
C3047      C3054   1.411       .  A
C3048      N3065   1.157       .  T
C3049      N3067   1.157       .  T
C3050      C3051   1.407       .  A
C3050      C3055   1.451       .  S
C3051      C3052   1.416       .  A
C3051      C3057   1.452       .  S
C3052      C3053   1.412       .  A
C3053      C3054   1.412       .  A
C3053      C3056   1.450       .  S
C3054      C3058   1.450       .  S
C3055      N3062   1.157       .  T
C3056      N3063   1.157       .  T
C3057      N3061   1.157       .  T
C3058      N3064   1.157       .  T
C3059      N3068   1.157       .  T
C3060      N3066   1.157       .  T
C3069      C3070   1.410       .  A
C3069      C3074   1.410       .  A
C3069      C3087   1.452       .  S
C3070      C3071   1.411       .  A
C3070      C3075   1.501       .  S
C3071      C3072   1.416       .  A
C3071      C3076   1.451       .  S
C3072      C3073   1.419       .  A
C3072      C3088   1.449       .  S
C3073      C3074   1.419       .  A
C3074      C3077   1.451       .  S
C3075      C3078   1.411       .  A
C3075      C3082   1.414       .  A
C3076      N3093   1.157       .  T
C3077      N3095   1.157       .  T
C3078      C3079   1.409   1_565  A
C3078      C3083   1.451       .  S
C3079      C3080   1.415       .  A
C3079      C3085   1.452       .  S
C3080      C3081   1.412       .  A
C3081      C3082   1.414   1_545  A
C3081      C3084   1.450       .  S
C3082      C3086   1.450       .  S
C3083      N3090   1.157       .  T
C3084      N3091   1.157       .  T
C3085      N3089   1.157       .  T
C3086      N3092   1.157       .  T
C3087      N3096   1.157       .  T
C3088      N3094   1.157       .  T
C3097      C3098   1.411       .  A
C3097      C3102   1.406       .  A
C3097      C3115   1.451       .  S
C3098      C3099   1.410       .  A
C3098      C3103   1.488       .  S
C3099      C3100   1.408       .  A
C3099      C3104   1.450       .  S
C3100      C3101   1.411       .  A
C3100      C3116   1.450       .  S
C3101      C3102   1.410       .  A
C3102      C3105   1.451       .  S
C3103      C3106   1.411       .  A
C3103      C3110   1.410       .  A
C3104      N3121   1.157       .  T
C3105      N3123   1.157       .  T
C3106      C3107   1.409       .  A
C3106      C3111   1.450       .  S
C3107      C3108   1.410       .  A
C3107      C3113   1.450       .  S
C3108      C3109   1.410       .  A
C3109      C3110   1.407       .  A
C3109      C3112   1.450       .  S
C3110      C3114   1.451       .  S
C3111      N3118   1.157       .  T
C3112      N3119   1.157       .  T
C3113      N3117   1.157       .  T
C3114      N3120   1.157       .  T
C3115      N3124   1.157       .  T
C3116      N3122   1.157       .  T
C3125      C3126   1.412       .  A
C3125      C3130   1.408       .  A
C3125      C3143   1.451       .  S
C3126      C3127   1.412       .  A
C3126      C3131   1.494       .  S
C3127      C3128   1.409       .  A
C3127      C3132   1.450       .  S
C3128      C3129   1.410       .  A
C3128      C3144   1.450       .  S
C3129      C3130   1.411       .  A
C3130      C3133   1.450       .  S
C3131      C3134   1.412       .  A
C3131      C3138   1.412       .  A
C3132      N3149   1.157       .  T
C3133      N3151   1.157       .  T
C3134      C3135   1.409       .  A
C3134      C3139   1.450       .  S
C3135      C3136   1.410       .  A
C3135      C3141   1.451       .  S
C3136      C3137   1.410       .  A
C3137      C3138   1.409       .  A
C3137      C3140   1.451       .  S
C3138      C3142   1.451       .  S
C3139      N3146   1.157       .  T
C3140      N3147   1.157       .  T
C3141      N3145   1.157       .  T
C3142      N3148   1.157       .  T
C3143      N3152   1.157       .  T
C3144      N3150   1.157       .  T
C3153      C3154   1.410       .  A
C3153      C3158   1.406       .  A
C3153      C3171   1.452       .  S
C3154      C3155   1.409       .  A
C3154      C3159   1.486       .  S
C3155      C3156   1.407       .  A
C3155      C3160   1.450       .  S
C3156      C3157   1.410       .  A
C3156      C3172   1.450       .  S
C3157      C3158   1.412       .  A
C3158      C3161   1.450       .  S
C3159      C3162   1.410       .  A
C3159      C3166   1.411       .  A
C3160      N3177   1.157       .  T
C3161      N3179   1.157       .  T
C3162      C3163   1.406       .  A
C3162      C3167   1.450       .  S
C3163      C3164   1.409       .  A
C3163      C3169   1.451       .  S
C3164      C3165   1.409       .  A
C3165      C3166   1.406       .  A
C3165      C3168   1.451       .  S
C3166      C3170   1.451       .  S
C3167      N3174   1.157       .  T
C3168      N3175   1.157       .  T
C3169      N3173   1.157       .  T
C3170      N3176   1.157       .  T
C3171      N3180   1.157       .  T
C3172      N3178   1.157       .  T
C3181      C3182   1.409       .  A
C3181      C3186   1.404       .  A
C3181      C3199   1.451       .  S
C3182      C3183   1.410       .  A
C3182      C3187   1.483       .  S
C3183      C3184   1.406       .  A
C3183      C3188   1.450       .  S
C3184      C3185   1.409       .  A
C3184      C3200   1.450       .  S
C3185      C3186   1.411       .  A
C3186      C3189   1.452       .  S
C3187      C3190   1.408       .  A
C3187      C3194   1.409       .  A
C3188      N3205   1.157       .  T
C3189      N3207   1.157       .  T
C3190      C3191   1.405       .  A
C3190      C3195   1.452       .  S
C3191      C3192   1.411       .  A
C3191      C3197   1.450       .  S
C3192      C3193   1.411       .  A
C3193      C3194   1.408       .  A
C3193      C3196   1.450       .  S
C3194      C3198   1.451       .  S
C3195      N3202   1.157       .  T
C3196      N3203   1.157       .  T
C3197      N3201   1.157       .  T
C3198      N3204   1.157       .  T
C3199      N3208   1.157       .  T
C3200      N3206   1.157       .  T
C3209      C3210   1.409       .  A
C3209      C3214   1.409       .  A
C3209      C3227   1.450       .  S
C3210      C3211   1.411       .  A
C3210      C3215   1.492       .  S
C3211      C3212   1.409       .  A
C3211      C3216   1.451       .  S
C3212      C3213   1.413       .  A
C3212      C3228   1.451       .  S
C3213      C3214   1.412       .  A
C3214      C3217   1.450       .  S
C3215      C3218   1.410       .  A
C3215      C3222   1.410       .  A
C3216      N3233   1.157       .  T
C3217      N3235   1.157       .  T
C3218      C3219   1.410       .  A
C3218      C3223   1.450       .  S
C3219      C3220   1.413       .  A
C3219      C3225   1.451       .  S
C3220      C3221   1.413       .  A
C3221      C3222   1.408       .  A
C3221      C3224   1.451       .  S
C3222      C3226   1.450       .  S
C3223      N3230   1.157       .  T
C3224      N3231   1.157       .  T
C3225      N3229   1.157       .  T
C3226      N3232   1.157       .  T
C3227      N3236   1.157       .  T
C3228      N3234   1.157       .  T
C3237      C3238   1.411       .  A
C3237      C3242   1.410       .  A
C3237      C3255   1.450       .  S
C3238      C3239   1.412       .  A
C3238      C3243   1.494       .  S
C3239      C3240   1.408       .  A
C3239      C3244   1.451       .  S
C3240      C3241   1.411       .  A
C3240      C3256   1.451       .  S
C3241      C3242   1.411       .  A
C3242      C3245   1.450       .  S
C3243      C3246   1.412       .  A
C3243      C3250   1.410       .  A
C3244      N3261   1.157       .  T
C3245      N3263   1.157       .  T
C3246      C3247   1.410       .  A
C3246      C3251   1.450       .  S
C3247      C3248   1.410       .  A
C3247      C3253   1.450       .  S
C3248      C3249   1.411       .  A
C3249      C3250   1.409       .  A
C3249      C3252   1.449       .  S
C3250      C3254   1.451       .  S
C3251      N3258   1.157       .  T
C3252      N3259   1.157       .  T
C3253      N3257   1.157       .  T
C3254      N3260   1.157       .  T
C3255      N3264   1.157       .  T
C3256      N3262   1.157       .  T
C3265      C3266   1.410       .  A
C3265      C3270   1.405       .  A
C3265      C3283   1.451       .  S
C3266      C3267   1.409       .  A
C3266      C3271   1.486       .  S
C3267      C3268   1.408       .  A
C3267      C3272   1.450       .  S
C3268      C3269   1.411       .  A
C3268      C3284   1.450       .  S
C3269      C3270   1.411       .  A
C3270      C3273   1.451       .  S
C3271      C3274   1.409       .  A
C3271      C3278   1.409       .  A
C3272      N3289   1.157       .  T
C3273      N3291   1.157       .  T
C3274      C3275   1.407       .  A
C3274      C3279   1.450       .  S
C3275      C3276   1.410       .  A
C3275      C3281   1.451       .  S
C3276      C3277   1.411       .  A
C3277      C3278   1.408       .  A
C3277      C3280   1.450       .  S
C3278      C3282   1.451       .  S
C3279      N3286   1.157       .  T
C3280      N3287   1.157       .  T
C3281      N3285   1.157       .  T
C3282      N3288   1.157       .  T
C3283      N3292   1.157       .  T
C3284      N3290   1.157       .  T
C3293      C3294   1.410       .  A
C3293      C3298   1.411       .  A
C3293      C3311   1.450       .  S
C3294      C3295   1.411       .  A
C3294      C3299   1.491       .  S
C3295      C3296   1.407       .  A
C3295      C3300   1.451       .  S
C3296      C3297   1.411       .  A
C3296      C3312   1.451       .  S
C3297      C3298   1.412       .  A
C3298      C3301   1.449       .  S
C3299      C3302   1.411       .  A
C3299      C3306   1.410       .  A
C3300      N3317   1.157       .  T
C3301      N3319   1.157       .  T
C3302      C3303   1.410       .  A
C3302      C3307   1.450       .  S
C3303      C3304   1.411       .  A
C3303      C3309   1.451       .  S
C3304      C3305   1.411       .  A
C3305      C3306   1.408       .  A
C3305      C3308   1.451       .  S
C3306      C3310   1.450       .  S
C3307      N3314   1.157       .  T
C3308      N3315   1.157       .  T
C3309      N3313   1.157       .  T
C3310      N3316   1.157       .  T
C3311      N3320   1.157       .  T
C3312      N3318   1.157       .  T
C3321      C3322   1.411       .  A
C3321      C3326   1.407       .  A
C3321      C3339   1.450       .  S
C3322      C3323   1.411       .  A
C3322      C3327   1.494       .  S
C3323      C3324   1.411       .  A
C3323      C3328   1.449       .  S
C3324      C3325   1.412       .  A
C3324      C3340   1.450       .  S
C3325      C3326   1.411       .  A
C3326      C3329   1.450       .  S
C3327      C3330   1.410       .  A
C3327      C3334   1.411       .  A
C3328      N3345   1.157       .  T
C3329      N3347   1.157       .  T
C3330      C3331   1.410       .  A
C3330      C3335   1.450       .  S
C3331      C3332   1.413       .  A
C3331      C3337   1.450       .  S
C3332      C3333   1.413       .  A
C3333      C3334   1.411       .  A
C3333      C3336   1.451       .  S
C3334      C3338   1.450       .  S
C3335      N3342   1.157       .  T
C3336      N3343   1.157       .  T
C3337      N3341   1.157       .  T
C3338      N3344   1.157       .  T
C3339      N3348   1.157       .  T
C3340      N3346   1.157       .  T
C3349      C3350   1.410       .  A
C3349      C3354   1.409       .  A
C3349      C3367   1.452       .  S
C3350      C3351   1.410       .  A
C3350      C3355   1.494       .  S
C3351      C3352   1.412       .  A
C3351      C3356   1.450       .  S
C3352      C3353   1.415       .  A
C3352      C3368   1.450       .  S
C3353      C3354   1.415       .  A
C3354      C3357   1.450       .  S
C3355      C3358   1.411       .  A
C3355      C3362   1.410       .  A
C3356      N3373   1.157       .  T
C3357      N3375   1.157       .  T
C3358      C3359   1.410       .  A
C3358      C3363   1.451       .  S
C3359      C3360   1.412       .  A
C3359      C3365   1.450       .  S
C3360      C3361   1.413       .  A
C3361      C3362   1.409       .  A
C3361      C3364   1.451       .  S
C3362      C3366   1.450       .  S
C3363      N3370   1.157       .  T
C3364      N3371   1.157       .  T
C3365      N3369   1.157       .  T
C3366      N3372   1.157       .  T
C3367      N3376   1.157       .  T
C3368      N3374   1.157       .  T
C3377      C3378   1.413       .  A
C3377      C3382   1.413       .  A
C3377      C3395   1.450       .  S
C3378      C3379   1.412       .  A
C3378      C3383   1.500       .  S
C3379      C3380   1.410       .  A
C3379      C3384   1.450       .  S
C3380      C3381   1.411       .  A
C3380      C3396   1.451       .  S
C3381      C3382   1.412       .  A
C3382      C3385   1.450       .  S
C3383      C3386   1.410       .  A
C3383      C3390   1.412       .  A
C3384      N3401   1.157       .  T
C3385      N3403   1.157       .  T
C3386      C3387   1.412       .  A
C3386      C3391   1.450       .  S
C3387      C3388   1.415       .  A
C3387      C3393   1.451       .  S
C3388      C3389   1.414       .  A
C3389      C3390   1.414       .  A
C3389      C3392   1.449       .  S
C3390      C3394   1.451       .  S
C3391      N3398   1.157       .  T
C3392      N3399   1.157       .  T
C3393      N3397   1.157       .  T
C3394      N3400   1.157       .  T
C3395      N3404   1.157       .  T
C3396      N3402   1.157       .  T
C3405      C3406   1.412       .  A
C3405      C3410   1.409       .  A
C3405      C3423   1.450       .  S
C3406      C3407   1.413       .  A
C3406      C3411   1.500       .  S
C3407      C3408   1.413       .  A
C3407      C3412   1.449       .  S
C3408      C3409   1.411       .  A
C3408      C3424   1.450       .  S
C3409      C3410   1.411       .  A
C3410      C3413   1.451       .  S
C3411      C3414   1.413       .  A
C3411      C3418   1.412       .  A
C3412      N3429   1.157       .  T
C3413      N3431   1.157       .  T
C3414      C3415   1.412       .  A
C3414      C3419   1.450       .  S
C3415      C3416   1.411       .  A
C3415      C3421   1.450       .  S
C3416      C3417   1.411       .  A
C3417      C3418   1.412       .  A
C3417      C3420   1.450       .  S
C3418      C3422   1.450       .  S
C3419      N3426   1.157       .  T
C3420      N3427   1.157       .  T
C3421      N3425   1.157       .  T
C3422      N3428   1.157       .  T
C3423      N3432   1.157       .  T
C3424      N3430   1.157       .  T
C3433      C3434   1.410       .  A
C3433      C3438   1.409       .  A
C3433      C3451   1.450       .  S
C3434      C3435   1.412       .  A
C3434      C3439   1.495       .  S
C3435      C3436   1.410       .  A
C3435      C3440   1.451       .  S
C3436      C3437   1.413       .  A
C3436      C3452   1.451       .  S
C3437      C3438   1.414       .  A
C3438      C3441   1.450       .  S
C3439      C3442   1.411       .  A
C3439      C3446   1.409       .  A
C3440      N3457   1.157       .  T
C3441      N3459   1.157       .  T
C3442      C3443   1.411       .  A
C3442      C3447   1.451       .  S
C3443      C3444   1.416       .  A
C3443      C3449   1.451       .  S
C3444      C3445   1.415       .  A
C3445      C3446   1.408       .  A
C3445      C3448   1.452       .  S
C3446      C3450   1.450       .  S
C3447      N3454   1.157       .  T
C3448      N3455   1.157       .  T
C3449      N3453   1.157       .  T
C3450      N3456   1.157       .  T
C3451      N3460   1.157       .  T
C3452      N3458   1.157       .  T
C3461      C3462   1.414       .  A
C3461      C3466   1.414       .  A
C3461      C3479   1.450       .  S
C3462      C3463   1.415       .  A
C3462      C3467   1.504       .  S
C3463      C3464   1.410       .  A
C3463      C3468   1.451       .  S
C3464      C3465   1.412       .  A
C3464      C3480   1.451       .  S
C3465      C3466   1.413       .  A
C3466      C3469   1.450       .  S
C3467      C3470   1.412       .  A
C3467      C3474   1.414       .  A
C3468      N3485   1.157       .  T
C3469      N3487   1.157       .  T
C3470      C3471   1.410       .  A
C3470      C3475   1.451       .  S
C3471      C3472   1.417       .  A
C3471      C3477   1.452       .  S
C3472      C3473   1.416       .  A
C3473      C3474   1.414       .  A
C3473      C3476   1.451       .  S
C3474      C3478   1.450       .  S
C3475      N3482   1.157       .  T
C3476      N3483   1.158       .  T
C3477      N3481   1.157       .  T
C3478      N3484   1.157       .  T
C3479      N3488   1.157       .  T
C3480      N3486   1.157       .  T
C3489      C3490   1.410       .  A
C3489      C3494   1.413       .  A
C3489      C3507   1.450       .  S
C3490      C3491   1.411       .  A
C3490      C3495   1.493       .  S
C3491      C3492   1.408       .  A
C3491      C3496   1.451       .  S
C3492      C3493   1.412       .  A
C3492      C3508   1.451       .  S
C3493      C3494   1.414       .  A
C3494      C3497   1.449       .  S
C3495      C3498   1.411       .  A
C3495      C3502   1.412       .  A
C3496      N3513   1.157       .  T
C3497      N3515   1.157       .  T
C3498      C3499   1.409       .  A
C3498      C3503   1.450       .  S
C3499      C3500   1.411       .  A
C3499      C3505   1.451       .  S
C3500      C3501   1.408       .  A
C3501      C3502   1.409       .  A
C3501      C3504   1.450       .  S
C3502      C3506   1.450       .  S
C3503      N3510   1.157       .  T
C3504      N3511   1.157       .  T
C3505      N3509   1.157       .  T
C3506      N3512   1.157       .  T
C3507      N3516   1.157       .  T
C3508      N3514   1.157       .  T
C3517      C3518   1.411       .  A
C3517      C3522   1.409       .  A
C3517      C3535   1.451       .  S
C3518      C3519   1.409       .  A
C3518      C3523   1.490       .  S
C3519      C3520   1.408       .  A
C3519      C3524   1.450       .  S
C3520      C3521   1.411       .  A
C3520      C3536   1.450       .  S
C3521      C3522   1.412       .  A
C3522      C3525   1.451       .  S
C3523      C3526   1.411       .  A
C3523      C3530   1.410       .  A
C3524      N3541   1.157       .  T
C3525      N3543   1.157       .  T
C3526      C3527   1.407       .  A
C3526      C3531   1.452       .  S
C3527      C3528   1.411       .  A
C3527      C3533   1.451       .  S
C3528      C3529   1.412       .  A
C3529      C3530   1.410       .  A
C3529      C3532   1.451       .  S
C3530      C3534   1.449       .  S
C3531      N3538   1.157       .  T
C3532      N3539   1.157       .  T
C3533      N3537   1.157       .  T
C3534      N3540   1.157       .  T
C3535      N3544   1.157       .  T
C3536      N3542   1.157       .  T
C3545      C3546   1.411       .  A
C3545      C3550   1.408       .  A
C3545      C3563   1.450       .  S
C3546      C3547   1.411       .  A
C3546      C3551   1.492       .  S
C3547      C3548   1.409       .  A
C3547      C3552   1.450       .  S
C3548      C3549   1.411       .  A
C3548      C3564   1.450       .  S
C3549      C3550   1.411       .  A
C3550      C3553   1.451       .  S
C3551      C3554   1.411       .  A
C3551      C3558   1.410       .  A
C3552      N3569   1.157       .  T
C3553      N3571   1.157       .  T
C3554      C3555   1.411       .  A
C3554      C3559   1.451       .  S
C3555      C3556   1.411       .  A
C3555      C3561   1.450       .  S
C3556      C3557   1.411       .  A
C3557      C3558   1.409       .  A
C3557      C3560   1.450       .  S
C3558      C3562   1.450       .  S
C3559      N3566   1.157       .  T
C3560      N3567   1.157       .  T
C3561      N3565   1.157       .  T
C3562      N3568   1.157       .  T
C3563      N3572   1.157       .  T
C3564      N3570   1.157       .  T
C3573      C3574   1.410       .  A
C3573      C3578   1.409       .  A
C3573      C3591   1.451       .  S
C3574      C3575   1.411       .  A
C3574      C3579   1.493       .  S
C3575      C3576   1.410       .  A
C3575      C3580   1.450       .  S
C3576      C3577   1.414       .  A
C3576      C3592   1.451       .  S
C3577      C3578   1.411       .  A
C3578      C3581   1.450       .  S
C3579      C3582   1.413       .  A
C3579      C3586   1.410       .  A
C3580      N3597   1.157       .  T
C3581      N3599   1.157       .  T
C3582      C3583   1.409       .  A
C3582      C3587   1.451       .  S
C3583      C3584   1.409       .  A
C3583      C3589   1.451       .  S
C3584      C3585   1.411       .  A
C3585      C3586   1.410       .  A
C3585      C3588   1.451       .  S
C3586      C3590   1.450       .  S
C3587      N3594   1.157       .  T
C3588      N3595   1.157       .  T
C3589      N3593   1.157       .  T
C3590      N3596   1.157       .  T
C3591      N3600   1.157       .  T
C3592      N3598   1.157   1_545  T
C3601      C3602   1.411       .  A
C3601      C3606   1.410       .  A
C3601      C3619   1.450       .  S
C3602      C3603   1.411       .  A
C3602      C3607   1.494       .  S
C3603      C3604   1.409       .  A
C3603      C3608   1.450       .  S
C3604      C3605   1.412       .  A
C3604      C3620   1.450       .  S
C3605      C3606   1.413       .  A
C3606      C3609   1.450       .  S
C3607      C3610   1.411       .  A
C3607      C3614   1.411       .  A
C3608      N3625   1.157       .  T
C3609      N3627   1.157       .  T
C3610      C3611   1.409       .  A
C3610      C3615   1.451       .  S
C3611      C3612   1.412       .  A
C3611      C3617   1.451       .  S
C3612      C3613   1.410       .  A
C3613      C3614   1.410       .  A
C3613      C3616   1.450       .  S
C3614      C3618   1.450       .  S
C3615      N3622   1.157       .  T
C3616      N3623   1.157       .  T
C3617      N3621   1.157       .  T
C3618      N3624   1.157       .  T
C3619      N3628   1.157       .  T
C3620      N3626   1.157       .  T
C3629      C3630   1.411       .  A
C3629      C3634   1.410       .  A
C3629      C3647   1.450       .  S
C3630      C3631   1.409       .  A
C3630      C3635   1.494       .  S
C3631      C3632   1.409       .  A
C3631      C3636   1.450       .  S
C3632      C3633   1.413       .  A
C3632      C3648   1.451       .  S
C3633      C3634   1.412       .  A
C3634      C3637   1.451       .  S
C3635      C3638   1.412       .  A
C3635      C3642   1.410       .  A
C3636      N3653   1.157       .  T
C3637      N3655   1.157       .  T
C3638      C3639   1.409       .  A
C3638      C3643   1.451       .  S
C3639      C3640   1.410       .  A
C3639      C3645   1.450       .  S
C3640      C3641   1.412       .  A
C3641      C3642   1.411       .  A
C3641      C3644   1.450       .  S
C3642      C3646   1.450       .  S
C3643      N3650   1.157       .  T
C3644      N3651   1.157       .  T
C3645      N3649   1.157       .  T
C3646      N3652   1.157       .  T
C3647      N3656   1.157       .  T
C3648      N3654   1.157       .  T
C3657      C3658   1.410       .  A
C3657      C3662   1.406       .  A
C3657      C3675   1.451       .  S
C3658      C3659   1.410       .  A
C3658      C3663   1.488       .  S
C3659      C3660   1.408       .  A
C3659      C3664   1.450       .  S
C3660      C3661   1.411       .  A
C3660      C3676   1.450       .  S
C3661      C3662   1.412       .  A
C3662      C3665   1.451       .  S
C3663      C3666   1.409       .  A
C3663      C3670   1.410       .  A
C3664      N3681   1.157       .  T
C3665      N3683   1.157       .  T
C3666      C3667   1.407       .  A
C3666      C3671   1.451       .  S
C3667      C3668   1.412       .  A
C3667      C3673   1.451       .  S
C3668      C3669   1.411       .  A
C3669      C3670   1.409       .  A
C3669      C3672   1.450       .  S
C3670      C3674   1.451       .  S
C3671      N3678   1.157       .  T
C3672      N3679   1.157       .  T
C3673      N3677   1.157       .  T
C3674      N3680   1.157       .  T
C3675      N3684   1.157       .  T
C3676      N3682   1.157       .  T
C3685      C3686   1.415       .  A
C3685      C3690   1.409       .  A
C3685      C3703   1.451       .  S
C3686      C3687   1.414       .  A
C3686      C3691   1.499       .  S
C3687      C3688   1.409       .  A
C3687      C3692   1.450       .  S
C3688      C3689   1.410       .  A
C3688      C3704   1.450       .  S
C3689      C3690   1.411       .  A
C3690      C3693   1.451       .  S
C3691      C3694   1.413       .  A
C3691      C3698   1.415       .  A
C3692      N3709   1.157       .  T
C3693      N3711   1.157       .  T
C3694      C3695   1.409       .  A
C3694      C3699   1.450       .  S
C3695      C3696   1.411       .  A
C3695      C3701   1.451       .  S
C3696      C3697   1.410       .  A
C3697      C3698   1.410       .  A
C3697      C3700   1.451       .  S
C3698      C3702   1.451       .  S
C3699      N3706   1.157       .  T
C3700      N3707   1.157       .  T
C3701      N3705   1.157       .  T
C3702      N3708   1.157       .  T
C3703      N3712   1.157       .  T
C3704      N3710   1.157       .  T
C3713      C3714   1.413       .  A
C3713      C3718   1.413       .  A
C3713      C3731   1.449       .  S
C3714      C3715   1.410       .  A
C3714      C3719   1.494       .  S
C3715      C3716   1.406       .  A
C3715      C3720   1.451       .  S
C3716      C3717   1.413       .  A
C3716      C3732   1.451       .  S
C3717      C3718   1.410       .  A
C3718      C3721   1.449       .  S
C3719      C3722   1.412       .  A
C3719      C3726   1.411       .  A
C3720      N3737   1.157       .  T
C3721      N3739   1.157       .  T
C3722      C3723   1.411       .  A
C3722      C3727   1.450       .  S
C3723      C3724   1.411       .  A
C3723      C3729   1.450       .  S
C3724      C3725   1.411       .  A
C3725      C3726   1.409       .  A
C3725      C3728   1.451       .  S
C3726      C3730   1.451       .  S
C3727      N3734   1.157       .  T
C3728      N3735   1.157       .  T
C3729      N3733   1.157       .  T
C3730      N3736   1.157       .  T
C3731      N3740   1.157       .  T
C3732      N3738   1.157       .  T
C3741      C3742   1.406       .  A
C3741      C3746   1.408       .  A
C3741      C3759   1.451       .  S
C3742      C3743   1.406       .  A
C3742      C3747   1.484       .  S
C3743      C3744   1.404       .  A
C3743      C3748   1.450       .  S
C3744      C3745   1.420       .  A
C3744      C3760   1.450       .  S
C3745      C3746   1.425       .  A
C3746      C3749   1.451       .  S
C3747      C3750   1.407       .  A
C3747      C3754   1.407       .  A
C3748      N3765   1.157       .  T
C3749      N3767   1.158       .  T
C3750      C3751   1.406       .  A
C3750      C3755   1.452       .  S
C3751      C3752   1.420       .  A
C3751      C3757   1.453       .  S
C3752      C3753   1.418       .  A
C3753      C3754   1.406       .  A
C3753      C3756   1.452       .  S
C3754      C3758   1.451       .  S
C3755      N3762   1.157       .  T
C3756      N3763   1.157       .  T
C3757      N3761   1.158       .  T
C3758      N3764   1.157       .  T
C3759      N3768   1.157       .  T
C3760      N3766   1.158       .  T
C3769      C3770   1.412       .  A
C3769      C3774   1.404       .  A
C3769      C3787   1.452       .  S
C3770      C3771   1.411       .  A
C3770      C3775   1.487       .  S
C3771      C3772   1.408       .  A
C3771      C3776   1.450       .  S
C3772      C3773   1.409       .  A
C3772      C3788   1.450       .  S
C3773      C3774   1.409       .  A
C3774      C3777   1.452       .  S
C3775      C3778   1.411       .  A
C3775      C3782   1.411       .  A
C3776      N3793   1.157       .  T
C3777      N3795   1.157       .  T
C3778      C3779   1.407       .  A
C3778      C3783   1.451       .  S
C3779      C3780   1.409       .  A
C3779      C3785   1.451       .  S
C3780      C3781   1.409       .  A
C3781      C3782   1.405       .  A
C3781      C3784   1.451       .  S
C3782      C3786   1.451       .  S
C3783      N3790   1.157       .  T
C3784      N3791   1.157       .  T
C3785      N3789   1.157       .  T
C3786      N3792   1.157       .  T
C3787      N3796   1.157       .  T
C3788      N3794   1.157       .  T
C3797      C3798   1.410       .  A
C3797      C3802   1.410       .  A
C3797      C3815   1.450       .  S
C3798      C3799   1.411       .  A
C3798      C3803   1.494       .  S
C3799      C3800   1.409       .  A
C3799      C3804   1.450       .  S
C3800      C3801   1.412       .  A
C3800      C3816   1.451       .  S
C3801      C3802   1.412       .  A
C3802      C3805   1.450       .  S
C3803      C3806   1.411       .  A
C3803      C3810   1.410       .  A
C3804      N3821   1.157       .  T
C3805      N3823   1.157       .  T
C3806      C3807   1.409       .  A
C3806      C3811   1.451       .  S
C3807      C3808   1.412       .  A
C3807      C3813   1.451       .  S
C3808      C3809   1.414       .  A
C3809      C3810   1.411       .  A
C3809      C3812   1.450       .  S
C3810      C3814   1.450       .  S
C3811      N3818   1.157       .  T
C3812      N3819   1.157       .  T
C3813      N3817   1.157       .  T
C3814      N3820   1.157       .  T
C3815      N3824   1.157       .  T
C3816      N3822   1.157       .  T
C3825      C3826   1.412       .  A
C3825      C3830   1.409       .  A
C3825      C3843   1.450       .  S
C3826      C3827   1.412       .  A
C3826      C3831   1.493       .  S
C3827      C3828   1.409       .  A
C3827      C3832   1.450       .  S
C3828      C3829   1.412       .  A
C3828      C3844   1.451       .  S
C3829      C3830   1.410       .  A
C3830      C3833   1.450       .  S
C3831      C3834   1.412       .  A
C3831      C3838   1.412       .  A
C3832      N3849   1.157       .  T
C3833      N3851   1.157       .  T
C3834      C3835   1.408       .  A
C3834      C3839   1.450       .  S
C3835      C3836   1.409       .  A
C3835      C3841   1.452       .  S
C3836      C3837   1.408       .  A
C3837      C3838   1.408       .  A
C3837      C3840   1.451       .  S
C3838      C3842   1.450       .  S
C3839      N3846   1.157       .  T
C3840      N3847   1.157       .  T
C3841      N3845   1.157       .  T
C3842      N3848   1.157       .  T
C3843      N3852   1.157       .  T
C3844      N3850   1.157       .  T
C3853      C3854   1.411       .  A
C3853      C3858   1.408       .  A
C3853      C3871   1.450       .  S
C3854      C3855   1.411       .  A
C3854      C3859   1.489       .  S
C3855      C3856   1.406       .  A
C3855      C3860   1.451       .  S
C3856      C3857   1.410       .  A
C3856      C3872   1.451       .  S
C3857      C3858   1.411       .  A
C3858      C3861   1.450       .  S
C3859      C3862   1.411       .  A
C3859      C3866   1.410       .  A
C3860      N3877   1.157       .  T
C3861      N3879   1.157       .  T
C3862      C3863   1.408       .  A
C3862      C3867   1.451       .  S
C3863      C3864   1.410       .  A
C3863      C3869   1.451       .  S
C3864      C3865   1.411       .  A
C3865      C3866   1.408       .  A
C3865      C3868   1.451       .  S
C3866      C3870   1.451       .  S
C3867      N3874   1.157       .  T
C3868      N3875   1.157       .  T
C3869      N3873   1.157       .  T
C3870      N3876   1.157       .  T
C3871      N3880   1.157       .  T
C3872      N3878   1.157       .  T
C3881      C3882   1.411       .  A
C3881      C3886   1.407       .  A
C3881      C3899   1.450       .  S
C3882      C3883   1.410       .  A
C3882      C3887   1.486       .  S
C3883      C3884   1.404       .  A
C3883      C3888   1.451       .  S
C3884      C3885   1.411       .  A
C3884      C3900   1.452       .  S
C3885      C3886   1.408       .  A
C3886      C3889   1.450       .  S
C3887      C3890   1.409       .  A
C3887      C3894   1.410       .  A
C3888      N3905   1.157       .  T
C3889      N3907   1.157       .  T
C3890      C3891   1.407       .  A
C3890      C3895   1.451       .  S
C3891      C3892   1.409       .  A
C3891      C3897   1.450       .  S
C3892      C3893   1.411       .  A
C3893      C3894   1.408       .  A
C3893      C3896   1.450       .  S
C3894      C3898   1.451       .  S
C3895      N3902   1.157       .  T
C3896      N3903   1.157       .  T
C3897      N3901   1.157       .  T
C3898      N3904   1.157       .  T
C3899      N3908   1.157       .  T
C3900      N3906   1.157       .  T
C3909      C3910   1.409       .  A
C3909      C3914   1.408       .  A
C3909      C3927   1.451       .  S
C3910      C3911   1.409       .  A
C3910      C3915   1.487       .  S
C3911      C3912   1.407       .  A
C3911      C3916   1.451       .  S
C3912      C3913   1.413       .  A
C3912      C3928   1.451       .  S
C3913      C3914   1.413       .  A
C3914      C3917   1.451       .  S
C3915      C3918   1.409       .  A
C3915      C3922   1.410       .  A
C3916      N3933   1.157       .  T
C3917      N3935   1.157       .  T
C3918      C3919   1.406       .  A
C3918      C3923   1.451       .  S
C3919      C3920   1.412       .  A
C3919      C3925   1.451       .  S
C3920      C3921   1.411       .  A
C3921      C3922   1.409       .  A
C3921      C3924   1.450       .  S
C3922      C3926   1.450       .  S
C3923      N3930   1.157       .  T
C3924      N3931   1.157       .  T
C3925      N3929   1.157       .  T
C3926      N3932   1.157       .  T
C3927      N3936   1.157       .  T
C3928      N3934   1.157       .  T
C3937      C3938   1.412       .  A
C3937      C3942   1.410       .  A
C3937      C3955   1.451       .  S
C3938      C3939   1.409       .  A
C3938      C3943   1.493       .  S
C3939      C3940   1.408       .  A
C3939      C3944   1.451       .  S
C3940      C3941   1.416       .  A
C3940      C3956   1.452       .  S
C3941      C3942   1.413       .  A
C3942      C3945   1.451       .  S
C3943      C3946   1.413       .  A
C3943      C3950   1.411       .  A
C3944      N3961   1.157       .  T
C3945      N3963   1.157       .  T
C3946      C3947   1.411       .  A
C3946      C3951   1.450       .  S
C3947      C3948   1.411       .  A
C3947      C3953   1.450       .  S
C3948      C3949   1.411       .  A
C3949      C3950   1.403       .  A
C3949      C3952   1.451       .  S
C3950      C3954   1.451       .  S
C3951      N3958   1.157       .  T
C3952      N3959   1.157       .  T
C3953      N3957   1.157       .  T
C3954      N3960   1.157       .  T
C3955      N3964   1.157       .  T
C3956      N3962   1.157       .  T
C3965      C3966   1.408       .  A
C3965      C3970   1.407       .  A
C3965      C3983   1.451       .  S
C3966      C3967   1.410       .  A
C3966      C3971   1.490       .  S
C3967      C3968   1.410       .  A
C3967      C3972   1.451       .  S
C3968      C3969   1.414       .  A
C3968      C3984   1.450       .  S
C3969      C3970   1.416       .  A
C3970      C3973   1.452       .  S
C3971      C3974   1.410       .  A
C3971      C3978   1.410       .  A
C3972      N3989   1.157       .  T
C3973      N3991   1.157       .  T
C3974      C3975   1.406       .  A
C3974      C3979   1.451       .  S
C3975      C3976   1.413       .  A
C3975      C3981   1.450       .  S
C3976      C3977   1.412       .  A
C3977      C3978   1.409       .  A
C3977      C3980   1.451       .  S
C3978      C3982   1.449       .  S
C3979      N3986   1.157       .  T
C3980      N3987   1.157       .  T
C3981      N3985   1.157       .  T
C3982      N3988   1.157       .  T
C3983      N3992   1.157       .  T
C3984      N3990   1.157       .  T
C3993      C3994   1.411       .  A
C3993      C3998   1.407       .  A
C3993      C4011   1.450       .  S
C3994      C3995   1.413       .  A
C3994      C3999   1.493       .  S
C3995      C3996   1.411       .  A
C3995      C4000   1.450       .  S
C3996      C3997   1.409       .  A
C3996      C4012   1.450       .  S
C3997      C3998   1.410       .  A
C3998      C4001   1.452       .  S
C3999      C4002   1.411       .  A
C3999      C4006   1.411       .  A
C4000      N4017   1.157       .  T
C4001      N4019   1.157       .  T
C4002      C4003   1.408       .  A
C4002      C4007   1.451       .  S
C4003      C4004   1.412       .  A
C4003      C4009   1.450       .  S
C4004      C4005   1.413       .  A
C4005      C4006   1.411       .  A
C4005      C4008   1.450       .  S
C4006      C4010   1.450       .  S
C4007      N4014   1.157       .  T
C4008      N4015   1.157       .  T
C4009      N4013   1.157       .  T
C4010      N4016   1.157       .  T
C4011      N4020   1.157       .  T
C4012      N4018   1.157       .  T
C4021      C4022   1.413       .  A
C4021      C4026   1.412       .  A
C4021      C4039   1.450       .  S
C4022      C4023   1.412       .  A
C4022      C4027   1.498       .  S
C4023      C4024   1.410       .  A
C4023      C4028   1.450       .  S
C4024      C4025   1.412       .  A
C4024      C4040   1.451       .  S
C4025      C4026   1.410       .  A
C4026      C4029   1.450       .  S
C4027      C4030   1.412       .  A
C4027      C4034   1.413       .  A
C4028      N4045   1.157       .  T
C4029      N4047   1.157       .  T
C4030      C4031   1.411       .  A
C4030      C4035   1.450       .  S
C4031      C4032   1.410       .  A
C4031      C4037   1.450       .  S
C4032      C4033   1.411       .  A
C4033      C4034   1.412       .  A
C4033      C4036   1.451       .  S
C4034      C4038   1.450       .  S
C4035      N4042   1.157       .  T
C4036      N4043   1.157       .  T
C4037      N4041   1.157       .  T
C4038      N4044   1.157       .  T
C4039      N4048   1.157       .  T
C4040      N4046   1.157       .  T
C4049      C4050   1.412       .  A
C4049      C4054   1.404       .  A
C4049      C4067   1.452       .  S
C4050      C4051   1.412       .  A
C4050      C4055   1.491       .  S
C4051      C4052   1.409       .  A
C4051      C4056   1.450       .  S
C4052      C4053   1.411       .  A
C4052      C4068   1.450       .  S
C4053      C4054   1.410       .  A
C4054      C4057   1.451       .  S
C4055      C4058   1.411       .  A
C4055      C4062   1.413       .  A
C4056      N4073   1.157       .  T
C4057      N4075   1.157       .  T
C4058      C4059   1.407       .  A
C4058      C4063   1.451       .  S
C4059      C4060   1.410       .  A
C4059      C4065   1.451       .  S
C4060      C4061   1.409       .  A
C4061      C4062   1.407       .  A
C4061      C4064   1.451       .  S
C4062      C4066   1.451       .  S
C4063      N4070   1.157       .  T
C4064      N4071   1.157       .  T
C4065      N4069   1.157       .  T
C4066      N4072   1.157       .  T
C4067      N4076   1.157       .  T
C4068      N4074   1.157       .  T
C4077      C4078   1.413       .  A
C4077      C4082   1.413       .  A
C4077      C4095   1.450       .  S
C4078      C4079   1.412       .  A
C4078      C4083   1.499       .  S
C4079      C4080   1.409       .  A
C4079      C4084   1.451       .  S
C4080      C4081   1.413       .  A
C4080      C4096   1.450       .  S
C4081      C4082   1.412       .  A
C4082      C4085   1.450       .  S
C4083      C4086   1.413       .  A
C4083      C4090   1.412       .  A
C4084      N4101   1.157       .  T
C4085      N4103   1.157       .  T
C4086      C4087   1.411       .  A
C4086      C4091   1.450       .  S
C4087      C4088   1.412       .  A
C4087      C4093   1.451       .  S
C4088      C4089   1.413       .  A
C4089      C4090   1.412       .  A
C4089      C4092   1.451       .  S
C4090      C4094   1.450       .  S
C4091      N4098   1.157       .  T
C4092      N4099   1.157       .  T
C4093      N4097   1.157       .  T
C4094      N4100   1.157       .  T
C4095      N4104   1.157       .  T
C4096      N4102   1.157       .  T
C4105      C4106   1.411       .  A
C4105      C4110   1.410       .  A
C4105      C4123   1.450       .  S
C4106      C4107   1.411       .  A
C4106      C4111   1.493       .  S
C4107      C4108   1.408       .  A
C4107      C4112   1.450       .  S
C4108      C4109   1.409       .  A
C4108      C4124   1.451       .  S
C4109      C4110   1.413       .  A
C4110      C4113   1.451       .  S
C4111      C4114   1.411       .  A
C4111      C4118   1.411       .  A
C4112      N4129   1.157       .  T
C4113      N4131   1.157       .  T
C4114      C4115   1.408       .  A
C4114      C4119   1.451       .  S
C4115      C4116   1.412       .  A
C4115      C4121   1.451       .  S
C4116      C4117   1.412       .  A
C4117      C4118   1.411       .  A
C4117      C4120   1.449       .  S
C4118      C4122   1.450       .  S
C4119      N4126   1.157       .  T
C4120      N4127   1.157       .  T
C4121      N4125   1.157       .  T
C4122      N4128   1.157       .  T
C4123      N4132   1.157       .  T
C4124      N4130   1.157       .  T
C4133      C4134   1.411       .  A
C4133      C4138   1.406       .  A
C4133      C4151   1.451       .  S
C4134      C4135   1.410       .  A
C4134      C4139   1.488       .  S
C4135      C4136   1.408       .  A
C4135      C4140   1.450       .  S
C4136      C4137   1.410       .  A
C4136      C4152   1.450       .  S
C4137      C4138   1.409       .  A
C4138      C4141   1.451       .  S
C4139      C4142   1.410       .  A
C4139      C4146   1.412       .  A
C4140      N4157   1.157       .  T
C4141      N4159   1.157       .  T
C4142      C4143   1.404       .  A
C4142      C4147   1.451       .  S
C4143      C4144   1.411       .  A
C4143      C4149   1.452       .  S
C4144      C4145   1.410       .  A
C4145      C4146   1.409       .  A
C4145      C4148   1.449       .  S
C4146      C4150   1.450       .  S
C4147      N4154   1.157       .  T
C4148      N4155   1.157       .  T
C4149      N4153   1.157       .  T
C4150      N4156   1.157       .  T
C4151      N4160   1.157       .  T
C4152      N4158   1.157       .  T
C4161      C4162   1.411       .  A
C4161      C4166   1.409       .  A
C4161      C4179   1.451       .  S
C4162      C4163   1.410       .  A
C4162      C4167   1.489       .  S
C4163      C4164   1.407       .  A
C4163      C4168   1.450       .  S
C4164      C4165   1.410       .  A
C4164      C4180   1.450       .  S
C4165      C4166   1.412       .  A
C4166      C4169   1.451       .  S
C4167      C4170   1.411       .  A
C4167      C4174   1.411       .  A
C4168      N4185   1.157       .  T
C4169      N4187   1.157       .  T
C4170      C4171   1.406       .  A
C4170      C4175   1.451       .  S
C4171      C4172   1.408       .  A
C4171      C4177   1.451       .  S
C4172      C4173   1.410       .  A
C4173      C4174   1.408       .  A
C4173      C4176   1.451       .  S
C4174      C4178   1.450       .  S
C4175      N4182   1.157       .  T
C4176      N4183   1.157       .  T
C4177      N4181   1.157       .  T
C4178      N4184   1.157       .  T
C4179      N4188   1.157       .  T
C4180      N4186   1.157       .  T
C4189      C4190   1.411       .  A
C4189      C4194   1.408       .  A
C4189      C4207   1.451       .  S
C4190      C4191   1.410       .  A
C4190      C4195   1.492       .  S
C4191      C4192   1.410       .  A
C4191      C4196   1.450       .  S
C4192      C4193   1.413       .  A
C4192      C4208   1.450       .  S
C4193      C4194   1.412       .  A
C4194      C4197   1.451       .  S
C4195      C4198   1.411       .  A
C4195      C4202   1.411       .  A
C4196      N4213   1.157       .  T
C4197      N4215   1.157       .  T
C4198      C4199   1.407       .  A
C4198      C4203   1.451       .  S
C4199      C4200   1.410       .  A
C4199      C4205   1.451       .  S
C4200      C4201   1.411       .  A
C4201      C4202   1.410       .  A
C4201      C4204   1.450       .  S
C4202      C4206   1.450       .  S
C4203      N4210   1.157       .  T
C4204      N4211   1.157       .  T
C4205      N4209   1.157       .  T
C4206      N4212   1.157       .  T
C4207      N4216   1.157       .  T
C4208      N4214   1.157       .  T
C4217      C4218   1.412       .  A
C4217      C4222   1.413       .  A
C4217      C4235   1.450       .  S
C4218      C4219   1.411       .  A
C4218      C4223   1.500       .  S
C4219      C4220   1.412       .  A
C4219      C4224   1.450       .  S
C4220      C4221   1.412       .  A
C4220      C4236   1.450       .  S
C4221      C4222   1.412       .  A
C4222      C4225   1.451       .  S
C4223      C4226   1.413       .  A
C4223      C4230   1.411       .  A
C4224      N4241   1.157       .  T
C4225      N4243   1.157       .  T
C4226      C4227   1.414       .  A
C4226      C4231   1.450       .  S
C4227      C4228   1.413       .  A
C4227      C4233   1.450       .  S
C4228      C4229   1.412       .  A
C4229      C4230   1.411       .  A
C4229      C4232   1.450       .  S
C4230      C4234   1.450       .  S
C4231      N4238   1.157       .  T
C4232      N4239   1.157       .  T
C4233      N4237   1.157       .  T
C4234      N4240   1.157       .  T
C4235      N4244   1.157       .  T
C4236      N4242   1.157       .  T
C4245      C4246   1.409       .  A
C4245      C4250   1.409       .  A
C4245      C4263   1.451       .  S
C4246      C4247   1.409       .  A
C4246      C4251   1.489       .  S
C4247      C4248   1.408       .  A
C4247      C4252   1.451       .  S
C4248      C4249   1.414       .  A
C4248      C4264   1.451       .  S
C4249      C4250   1.413       .  A
C4250      C4253   1.451       .  S
C4251      C4254   1.409       .  A
C4251      C4258   1.411       .  A
C4252      N4269   1.157       .  T
C4253      N4271   1.157       .  T
C4254      C4255   1.408       .  A
C4254      C4259   1.450       .  S
C4255      C4256   1.411       .  A
C4255      C4261   1.450       .  S
C4256      C4257   1.413       .  A
C4257      C4258   1.407       .  A
C4257      C4260   1.451       .  S
C4258      C4262   1.451       .  S
C4259      N4266   1.157       .  T
C4260      N4267   1.157       .  T
C4261      N4265   1.157       .  T
C4262      N4268   1.157       .  T
C4263      N4272   1.157       .  T
C4264      N4270   1.157       .  T
C4273      C4274   1.411       .  A
C4273      C4278   1.409       .  A
C4273      C4291   1.451       .  S
C4274      C4275   1.410       .  A
C4274      C4279   1.493       .  S
C4275      C4276   1.410       .  A
C4275      C4280   1.450       .  S
C4276      C4277   1.412       .  A
C4276      C4292   1.450       .  S
C4277      C4278   1.412       .  A
C4278      C4281   1.450       .  S
C4279      C4282   1.411       .  A
C4279      C4286   1.411       .  A
C4280      N4297   1.157       .  T
C4281      N4299   1.157       .  T
C4282      C4283   1.410       .  A
C4282      C4287   1.450       .  S
C4283      C4284   1.412       .  A
C4283      C4289   1.451       .  S
C4284      C4285   1.410       .  A
C4285      C4286   1.409       .  A
C4285      C4288   1.451       .  S
C4286      C4290   1.450       .  S
C4287      N4294   1.157       .  T
C4288      N4295   1.157       .  T
C4289      N4293   1.157       .  T
C4290      N4296   1.157       .  T
C4291      N4300   1.157       .  T
C4292      N4298   1.157       .  T
C4301      C4302   1.414       .  A
C4301      C4306   1.411       .  A
C4301      C4319   1.450       .  S
C4302      C4303   1.415       .  A
C4302      C4307   1.503       .  S
C4303      C4304   1.413       .  A
C4303      C4308   1.450       .  S
C4304      C4305   1.411       .  A
C4304      C4320   1.451       .  S
C4305      C4306   1.409       .  A
C4306      C4309   1.451       .  S
C4307      C4310   1.414       .  A
C4307      C4314   1.415       .  A
C4308      N4325   1.157       .  T
C4309      N4327   1.157       .  T
C4310      C4311   1.409       .  A
C4310      C4315   1.451       .  S
C4311      C4312   1.411       .  A
C4311      C4317   1.451       .  S
C4312      C4313   1.411       .  A
C4313      C4314   1.414       .  A
C4313      C4316   1.450       .  S
C4314      C4318   1.450       .  S
C4315      N4322   1.157       .  T
C4316      N4323   1.157       .  T
C4317      N4321   1.157       .  T
C4318      N4324   1.157       .  T
C4319      N4328   1.157       .  T
C4320      N4326   1.157       .  T
C4329      C4330   1.413       .  A
C4329      C4334   1.413       .  A
C4329      C4347   1.451       .  S
C4330      C4331   1.412       .  A
C4330      C4335   1.501       .  S
C4331      C4332   1.412       .  A
C4331      C4336   1.450       .  S
C4332      C4333   1.412       .  A
C4332      C4348   1.450       .  S
C4333      C4334   1.412       .  A
C4334      C4337   1.450       .  S
C4335      C4338   1.413       .  A
C4335      C4342   1.413       .  A
C4336      N4353   1.157       .  T
C4337      N4355   1.157       .  T
C4338      C4339   1.411       .  A
C4338      C4343   1.449       .  S
C4339      C4340   1.410       .  A
C4339      C4345   1.450       .  S
C4340      C4341   1.412       .  A
C4341      C4342   1.411       .  A
C4341      C4344   1.451       .  S
C4342      C4346   1.450       .  S
C4343      N4350   1.157       .  T
C4344      N4351   1.157       .  T
C4345      N4349   1.157       .  T
C4346      N4352   1.157       .  T
C4347      N4356   1.157       .  T
C4348      N4354   1.157       .  T
C4357      C4358   1.411       .  A
C4357      C4362   1.414       .  A
C4357      C4375   1.449       .  S
C4358      C4359   1.411       .  A
C4358      C4363   1.497       .  S
C4359      C4360   1.410       .  A
C4359      C4364   1.451       .  S
C4360      C4361   1.413       .  A
C4360      C4376   1.451       .  S
C4361      C4362   1.413       .  A
C4362      C4365   1.450       .  S
C4363      C4366   1.411       .  A
C4363      C4370   1.412       .  A
C4364      N4381   1.157       .  T
C4365      N4383   1.157       .  T
C4366      C4367   1.409       .  A
C4366      C4371   1.450       .  S
C4367      C4368   1.413       .  A
C4367      C4373   1.451       .  S
C4368      C4369   1.412       .  A
C4369      C4370   1.412       .  A
C4369      C4372   1.450       .  S
C4370      C4374   1.450       .  S
C4371      N4378   1.157       .  T
C4372      N4379   1.157       .  T
C4373      N4377   1.157       .  T
C4374      N4380   1.157       .  T
C4375      N4384   1.157       .  T
C4376      N4382   1.157       .  T
C4385      C4386   1.411       .  A
C4385      C4390   1.406       .  A
C4385      C4403   1.451       .  S
C4386      C4387   1.412       .  A
C4386      C4391   1.492       .  S
C4387      C4388   1.409       .  A
C4387      C4392   1.450       .  S
C4388      C4389   1.410       .  A
C4388      C4404   1.450       .  S
C4389      C4390   1.412       .  A
C4390      C4393   1.451       .  S
C4391      C4394   1.413       .  A
C4391      C4398   1.411       .  A
C4392      N4409   1.157       .  T
C4393      N4411   1.157       .  T
C4394      C4395   1.411       .  A
C4394      C4399   1.451       .  S
C4395      C4396   1.410       .  A
C4395      C4401   1.451       .  S
C4396      C4397   1.410       .  A
C4397      C4398   1.406       .  A
C4397      C4400   1.451       .  S
C4398      C4402   1.451       .  S
C4399      N4406   1.157       .  T
C4400      N4407   1.157       .  T
C4401      N4405   1.157       .  T
C4402      N4408   1.157       .  T
C4403      N4412   1.157       .  T
C4404      N4410   1.157       .  T
C4413      C4414   1.411       .  A
C4413      C4418   1.410       .  A
C4413      C4431   1.451       .  S
C4414      C4415   1.411       .  A
C4414      C4419   1.496       .  S
C4415      C4416   1.412       .  A
C4415      C4420   1.450       .  S
C4416      C4417   1.412       .  A
C4416      C4432   1.450       .  S
C4417      C4418   1.414       .  A
C4418      C4421   1.452       .  S
C4419      C4422   1.411       .  A
C4419      C4426   1.411       .  A
C4420      N4437   1.157       .  T
C4421      N4439   1.157       .  T
C4422      C4423   1.410       .  A
C4422      C4427   1.451       .  S
C4423      C4424   1.414       .  A
C4423      C4429   1.450       .  S
C4424      C4425   1.413       .  A
C4425      C4426   1.412       .  A
C4425      C4428   1.450       .  S
C4426      C4430   1.450       .  S
C4427      N4434   1.157       .  T
C4428      N4435   1.157       .  T
C4429      N4433   1.157       .  T
C4430      N4436   1.157       .  T
C4431      N4440   1.157       .  T
C4432      N4438   1.157       .  T
