geometry optimzed in LAMMPS
_audit_creation_date              2020-11-30 
_audit_creation_method            'lammps2cif' 
_symmetry_space_group_name_H-M    'P1' 
_symmetry_Int_Tables_number       1 
_symmetry_cell_setting            triclinic 
loop_ 
_symmetry_equiv_pos_as_xyz 
  x,y,z 
_cell_length_a                    30.08536203 
_cell_length_b                    32.89265511789515 
_cell_length_c                    31.703162421128503 
_cell_angle_alpha                 90.6953324353015 
_cell_angle_beta                  89.41304961041934 
_cell_angle_gamma                 89.93619115779126 
loop_ 
_atom_site_label 
_atom_site_type_symbol 
_atom_site_fract_x 
_atom_site_fract_y 
_atom_site_fract_z 
_atom_site_charge 
C1          C  0.36968738  0.42600002  0.10907302     0.42400
N2          N  0.36018638  0.47494291  0.06482774     0.01300
C3          C  0.16219722  0.58484711  0.05426446    -0.06600
H4          H  0.13387660  0.44205398  0.04352024     0.06800
C5          C  0.23612920  0.43412350  0.89812768    -0.06900
Co6        Co  0.27551284  0.51954493  0.08082500     0.74200
N7          N  0.19698082  0.47304211  0.04853363    -0.26100
Co8        Co  0.20150615  0.51311196  0.99704638     0.74100
C9          C  0.18850537  0.42756787  0.89768320     0.42500
N10         N  0.34036893  0.45653289  0.94147453     0.00900
N11         N  0.20546906  0.46567689  0.95135462     0.01000
N12         N  0.21251327  0.58549247  0.10581486    -0.46900
H13         H  0.30163124  0.44059080  0.14067935     0.06800
N14         N  0.22639842  0.47506626  0.07933679     0.01300
N15         N  0.21059971  0.55256228  0.94583170     0.01100
C16         C  0.19844953  0.59050273  0.89208493     0.42700
N17         N  0.36846359  0.46081440  0.97285258    -0.25600
C18         C  0.32073418  0.60274040  0.09469147    -0.06500
N19         N  0.38727929  0.44499687  0.07510888    -0.46700
N20         N  0.18090678  0.57748028  0.92916587    -0.46900
C21         C  0.35415032  0.62641424  0.07217946     0.42400
N22         N  0.22565301  0.56203830  0.07402505     0.01300
N23         N  0.37053801  0.54976094  0.95979015    -0.25600
N24         N  0.32486529  0.47663857  0.08940124    -0.26100
N25         N  0.34307033  0.54485904  0.92822312     0.00900
H26         H  0.41951646  0.59594683  0.97351265     0.06800
H27         H  0.26292973  0.56963656  0.85939698     0.06900
N28         N  0.19661494  0.56026875  0.04322227    -0.26100
N29         N  0.24291249  0.45982359  0.93015983    -0.25700
N30         N  0.35704389  0.56392638  0.05106226     0.01300
C31         C  0.17707586  0.43369538  0.10258804     0.42700
C32         C  0.39193518  0.42621684  0.97603829    -0.07000
N33         N  0.24557814  0.54705402  0.92071029    -0.25700
H34         H  0.25963473  0.42880929  0.87258641     0.06900
N35         N  0.21537788  0.45258104  0.11199475    -0.47000
H36         H  0.41564830  0.42011825  0.99958103     0.06800
C37         C  0.37954125  0.59877238  0.91222733     0.42500
C38         C  0.32745999  0.44704943  0.11794844    -0.06500
Co39       Co  0.36567142  0.51247582  0.01233305     0.73800
N40         N  0.34277144  0.42010669  0.92312579    -0.46700
C41         C  0.17278489  0.60178564  0.09672036     0.42800
N42         N  0.37568525  0.60013911  0.04594902    -0.46700
Co43       Co  0.29334941  0.50178139  0.92988783     0.73900
C44         C  0.24118055  0.57031419  0.88678104    -0.07000
C45         C  0.16434795  0.44750948  0.06046837    -0.06500
N46         N  0.32352643  0.56522671  0.07822429    -0.26100
N47         N  0.17150398  0.44798430  0.93177942    -0.46800
H48         H  0.13197186  0.58713128  0.03647172     0.06800
C49         C  0.39547020  0.58280369  0.95225267    -0.07000
Cl50       Cl  0.28379251  0.51174355  0.00502955    -0.50000
C51         C  0.37470501  0.39902212  0.94314420     0.42600
H52         H  0.29477177  0.61338219  0.11572127     0.06800
N53         N  0.34690228  0.57356216  0.89961423    -0.46700
C54         C  0.81158132  0.41541036  0.11928338     0.42400
N55         N  0.80027574  0.45811983  0.06945014     0.01300
C56         C  0.61046187  0.57697501  0.04606123    -0.06600
H57         H  0.58981260  0.40982692  0.04619852     0.06800
C58         C  0.68451966  0.40252792  0.92093864    -0.06900
Co59       Co  0.71572538  0.50555123  0.08720348     0.74200
N60         N  0.63924702  0.45547969  0.05842022    -0.26100
Co61       Co  0.64120024  0.49275056  0.00583292     0.74100
C62         C  0.64515212  0.38102658  0.93606043     0.42500
N63         N  0.78179473  0.44444958  0.94371316     0.00900
N64         N  0.64866032  0.44092556  0.96550672     0.01000
N65         N  0.66107027  0.58399881  0.09782105    -0.46900
H66         H  0.74783544  0.43513791  0.15424259     0.06800
N67         N  0.66785776  0.46049206  0.08914187     0.01300
N68         N  0.64574173  0.53075767  0.95363507     0.01100
C69         C  0.63888355  0.58117409  0.91120558     0.42700
N70         N  0.81231356  0.44934532  0.97292171    -0.25600
C71         C  0.77098570  0.57714830  0.11623343    -0.06500
N72         N  0.82929410  0.43088987  0.08330275    -0.46700
N73         N  0.62122582  0.56329515  0.94581066    -0.46900
C74         C  0.81655752  0.59055569  0.11073930     0.42400
N75         N  0.66627885  0.54905801  0.07696805     0.01300
N76         N  0.80666150  0.53677586  0.96538353    -0.25600
N77         N  0.76558837  0.46225818  0.09516025    -0.26100
N78         N  0.77672184  0.53133148  0.93559085     0.00900
H79         H  0.86403270  0.57625570  0.96913814     0.06800
H80         H  0.70205945  0.56306947  0.87477565     0.06900
N81         N  0.63736561  0.54418740  0.04623554    -0.26100
N82         N  0.68361824  0.43887585  0.94015513    -0.25700
N83         N  0.80047054  0.54631407  0.06200245     0.01300
C84         C  0.63287375  0.40599821  0.10563205     0.42700
C85         C  0.84750542  0.42565206  0.96188602    -0.07000
N86         N  0.67965393  0.52717460  0.92736269    -0.25700
H87         H  0.71096423  0.39192375  0.90033812     0.06900
N88         N  0.66569585  0.43132898  0.11743982    -0.47000
H89         H  0.87905237  0.42561650  0.97789511     0.06800
C90         C  0.81832682  0.57832783  0.91077684     0.42500
C91         C  0.76997415  0.43680270  0.12724133    -0.06500
Co92       Co  0.80616680  0.49762662  0.01767556     0.73800
N93         N  0.79439640  0.41937309  0.91304278    -0.46700
C94         C  0.62635195  0.60338722  0.08031684     0.42800
N95         N  0.83316143  0.56955962  0.07681417    -0.46700
Co96       Co  0.73016586  0.48523529  0.93640366     0.73900
C97         C  0.67750684  0.55694634  0.89896100    -0.07000
C98         C  0.61497695  0.42231598  0.06651303    -0.06500
N99         N  0.76447986  0.54937420  0.08595702    -0.26100
N100        N  0.62492494  0.40670132  0.96434971    -0.46800
H101        H  0.58407967  0.58238925  0.02390099     0.06800
C102        C  0.83479906  0.56614830  0.95247035    -0.07000
Cl103      Cl  0.72361281  0.49524879  0.01184019    -0.50000
C104        C  0.83535813  0.40549290  0.92155033     0.42600
H105        H  0.74931379  0.58185022  0.14329998     0.06800
N106        N  0.78284713  0.55498089  0.90294274    -0.46700
C107        C  0.40651576  0.12370009  0.13846040     0.42400
N108        N  0.43842819  0.06506523  0.13971101     0.01300
C109        C  0.42317454  0.94355530  0.31756809    -0.06600
H110        H  0.46242942  0.08050915  0.35480922     0.06800
C111        C  0.61329515  0.06911214  0.25736811    -0.06900
Co112      Co  0.41002483  0.01870362  0.21560301     0.74200
N113        N  0.45192808  0.05455357  0.29287353    -0.26100
Co114      Co  0.49727381  0.00659667  0.28645978     0.74100
C115        C  0.60675713  0.08433527  0.30047371     0.42500
N116        N  0.56734711  0.05091146  0.15654556     0.00900
N117        N  0.55138382  0.04649433  0.28298674     0.01000
N118        N  0.37427296  0.95061334  0.26507978    -0.46900
H119        H  0.36642350  0.11080032  0.19864180     0.06800
N120        N  0.42006932  0.05950268  0.26512445     0.01300
N121        N  0.54506696  0.95918332  0.27864559     0.01100
C122        C  0.60057106  0.91900313  0.29115113     0.42700
N123        N  0.53532488  0.05361306  0.12900095    -0.25600
C124        C  0.36988593  0.94757742  0.16381064    -0.06500
N125        N  0.43752943  0.09992236  0.11892439    -0.46700
N126        N  0.56380379  0.93703499  0.30863632    -0.46900
C127        C  0.38194582  0.92549936  0.12532015     0.42400
N128        N  0.41055851  0.97168338  0.25789878     0.01300
N129        N  0.52357080  0.96407511  0.12605325    -0.25600
N130        N  0.41129197  0.06561761  0.17264198    -0.26100
N131        N  0.55703236  0.96030935  0.15231246     0.00900
H132        H  0.49233833  0.92137206  0.08326268     0.06800
H133        H  0.63223839  0.93146673  0.22711183     0.06900
N134        N  0.44082019  0.96782818  0.28754508    -0.26100
N135        N  0.57792548  0.04565585  0.24949814    -0.25700
N136        N  0.42662842  0.97576955  0.13389368     0.01300
C137        C  0.40314230  0.10177045  0.31521635     0.42700
C138        C  0.54165275  0.08710687  0.10623215    -0.07000
N139        N  0.56976715  0.95870701  0.24395929    -0.25700
H140        H  0.64254565  0.07122491  0.23740567     0.06900
N141        N  0.39038842  0.08680389  0.27752981    -0.45200
H142        H  0.51985986  0.09543108  0.08122096     0.06800
C143        C  0.55226029  0.90123200  0.12188208     0.42500
C144        C  0.38946273  0.10106807  0.17414144    -0.06500
Co145      Co  0.48119041  0.01465747  0.13048256     0.73800
N146        N  0.59435100  0.08258576  0.15542499    -0.46700
C147        C  0.37837264  0.93248069  0.30227748     0.42800
N148        N  0.41747385  0.94467575  0.10850348    -0.46700
Co149      Co  0.56860063  0.00402817  0.19986638     0.73900
C150        C  0.60391141  0.93335052  0.24834936    -0.07000
C151        C  0.44428193  0.08017279  0.32553907    -0.06500
N152        N  0.39978024  0.97757908  0.16682611    -0.26100
N153        N  0.56787446  0.06855063  0.31447420    -0.46800
H154        H  0.43759674  0.93812672  0.34809270     0.06800
C155        C  0.51872226  0.92861515  0.10486677    -0.07000
Cl156      Cl  0.48929842  0.01089853  0.20827300    -0.50000
C157        C  0.58070533  0.10761530  0.12448624     0.42600
H158        H  0.34477301  0.94027426  0.18712277     0.06800
N159        N  0.57453782  0.92324480  0.15111027    -0.46700
C160        C  0.40712067  0.09443342  0.70849956     0.42400
N161        N  0.45722013  0.04968487  0.72394422     0.01300
C162        C  0.44440454  0.91508407  0.88969146    -0.06600
H163        H  0.48613277  0.07698420  0.92834373     0.06800
C164        C  0.62112042  0.05559759  0.85073681    -0.06900
Co165      Co  0.42463872  0.00243402  0.79868941     0.74200
N166        N  0.46314171  0.03846709  0.87722906    -0.26100
Co167      Co  0.50671829  0.98840837  0.87302279     0.74100
C168        C  0.60616869  0.07730414  0.88871951     0.42500
N169        N  0.58814907  0.03520612  0.75233123     0.00900
N170        N  0.56126782  0.02774323  0.87484888     0.01000
N171        N  0.39139882  0.92460652  0.84126297    -0.46900
H172        H  0.36602122  0.07878872  0.76725035     0.06800
N173        N  0.43192607  0.04350977  0.84878123     0.01300
N174        N  0.55060847  0.93837586  0.86525295     0.01100
C175        C  0.58407932  0.88032213  0.86781709     0.42700
N176        N  0.56038282  0.03972302  0.72067627    -0.25600
C177        C  0.38474460  0.93936725  0.73836827    -0.06500
N178        N  0.44492776  0.07574495  0.69445573    -0.46700
N179        N  0.55224508  0.90385908  0.88668336    -0.46900
C180        C  0.39410511  0.92335825  0.69639410     0.42400
N181        N  0.42098018  0.95451929  0.84103624     0.01300
N182        N  0.54932523  0.95379784  0.71121230    -0.25600
N183        N  0.42833905  0.04903247  0.75558427    -0.26100
N184        N  0.57915382  0.94790775  0.74075347     0.00900
H185        H  0.54636847  0.93419106  0.64611232     0.06800
H186        H  0.62587680  0.89450499  0.80872793     0.06900
N187        N  0.45244764  0.94943935  0.86897864    -0.26100
N188        N  0.59103432  0.02622098  0.84422797    -0.25700
N189        N  0.44824878  0.96182008  0.71604443     0.01300
C190        C  0.42834055  0.09797378  0.88691672     0.42700
C191        C  0.58080261  0.06371206  0.69200855    -0.07000
N192        N  0.57917751  0.93841888  0.83346882    -0.25700
H193        H  0.64808908  0.06324076  0.82949180     0.06900
N194        N  0.41082172  0.07873126  0.85313051    -0.47000
H195        H  0.56897594  0.06924423  0.66049722     0.06800
C196        C  0.60300129  0.91146686  0.68812254     0.42500
C197        C  0.39650432  0.07638691  0.74899492    -0.06500
Co198      Co  0.50357733  0.00151181  0.71705440     0.73800
N199        N  0.62551275  0.05541042  0.74758394    -0.46700
C200        C  0.40344081  0.89838006  0.87167175     0.42800
N201        N  0.43353459  0.93947612  0.68382493    -0.46700
Co202      Co  0.58452381  0.98680434  0.79288285     0.73900
C203        C  0.60135491  0.90321742  0.83228891    -0.07000
C204        C  0.46305271  0.07126441  0.90305837    -0.06500
N205        N  0.41956084  0.96257359  0.74791917    -0.26100
N206        N  0.56836425  0.05847060  0.90145195    -0.46800
H207        H  0.46648720  0.90248101  0.91270719     0.06800
C208        C  0.56135498  0.93181454  0.67684868    -0.07000
Cl209      Cl  0.50485864  0.99485747  0.79528464    -0.50000
C210        C  0.62464495  0.07376387  0.71020609     0.42600
H211        H  0.35420539  0.93803648  0.75650320     0.06800
N212        N  0.61158846  0.92344832  0.72799672    -0.46700
C213        C  0.07373441  0.36318595  0.39149108     0.42400
N214        N  0.04238577  0.35429227  0.45202202     0.01300
C215        C  0.08175597  0.17963362  0.56787745    -0.06600
H216        H  0.05116737  0.14382980  0.43011400     0.06800
C217        C  0.88094544  0.22399827  0.45015762    -0.06900
Co218      Co  0.08116317  0.28276216  0.49516299     0.74200
N219        N  0.04907500  0.20524620  0.45473302    -0.26100
Co220      Co  0.00395584  0.20409034  0.50610240     0.74100
C221        C  0.88785580  0.18317845  0.43391672     0.42500
N222        N  0.91577470  0.32212250  0.46875104     0.00900
N223        N  0.94626628  0.20256006  0.46784360     0.01000
N224        N  0.12533403  0.23459573  0.56154234    -0.46900
H225        H  0.12107788  0.30939749  0.40054506     0.06800
N226        N  0.07686342  0.23609020  0.45033050     0.01300
N227        N  0.95971142  0.20528117  0.55809752     0.01100
C228        C  0.91436672  0.18680458  0.60741711     0.42700
N229        N  0.94506566  0.35161270  0.46498650    -0.25600
C230        C  0.11198410  0.33197608  0.57398241    -0.06500
N231        N  0.04104894  0.37707594  0.41766045    -0.46700
N232        N  0.95063783  0.17516428  0.58441027    -0.46900
C233        C  0.09143154  0.36261831  0.60200229     0.42400
N234        N  0.08795145  0.23920606  0.54099017     0.01300
N235        N  0.95639332  0.35408425  0.55805528    -0.25600
N236        N  0.07329636  0.32594746  0.44906504    -0.26100
N237        N  0.92767226  0.32420844  0.56229529     0.00900
H238        H  0.97702092  0.40205541  0.60104375     0.06800
H239        H  0.87065993  0.24284539  0.59844920     0.06900
N240        N  0.06111185  0.20764823  0.54419122    -0.26100
N241        N  0.91751025  0.23282950  0.47159362    -0.25700
N242        N  0.05274725  0.35562088  0.54542205     0.01300
C243        C  0.10407302  0.18991687  0.40846252     0.42700
C244        C  0.93706031  0.37173219  0.42938804    -0.07000
N245        N  0.92999333  0.23477963  0.56127019    -0.25700
H246        H  0.85062232  0.24170780  0.45105572     0.06900
N247        N  0.10961079  0.22796560  0.42350914    -0.47000
H248        H  0.95723009  0.39581015  0.41646123     0.06800
C249        C  0.92385067  0.35632682  0.62191891     0.42500
C250        C  0.09490548  0.32926052  0.41214286    -0.06500
Co251      Co  0.99900211  0.35535947  0.50500070     0.73800
N252        N  0.88858279  0.31984885  0.43613034    -0.46700
C253        C  0.12509609  0.19782877  0.57921211     0.42800
N254        N  0.05529991  0.37603924  0.58148678    -0.46700
Co255      Co  0.92224417  0.27893334  0.51601329     0.73900
C256        C  0.90111419  0.22628326  0.59201146    -0.07000
C257        C  0.06348106  0.17469215  0.42934223    -0.06500
N258        N  0.08451367  0.32841632  0.54108332    -0.26100
N259        N  0.92904315  0.17127851  0.44637704    -0.46800
H260        H  0.07015114  0.14887178  0.57221265     0.06800
C261        C  0.95574687  0.37649550  0.59399503    -0.07000
Cl262      Cl  0.00162310  0.27983890  0.50528630    -0.50000
C263        C  0.89982292  0.35051678  0.41018808     0.42600
H264        H  0.14058065  0.31304762  0.57904767     0.06800
N265        N  0.90828627  0.32394152  0.60009053    -0.46700
C266        C  0.09429864  0.80743217  0.40503890     0.42400
N267        N  0.04399736  0.79061790  0.45066499     0.01300
C268        C  0.04647639  0.62324343  0.58178785    -0.06600
H269        H  0.00141581  0.59914187  0.41005691     0.06800
C270        C  0.87378990  0.67813543  0.43848582    -0.06900
Co271      Co  0.07229600  0.71453827  0.49519596     0.74200
N272        N  0.02895063  0.64328135  0.45370923    -0.26100
Co273      Co  0.98588767  0.64633038  0.50608700     0.74100
C274        C  0.88701544  0.64251901  0.41362915     0.42500
N275        N  0.91143032  0.76975105  0.46668774     0.00900
N276        N  0.93157733  0.65015511  0.46580480     0.01000
N277        N  0.10139426  0.66929923  0.57427944    -0.46900
H278        H  0.13356988  0.74892115  0.41641475     0.06800
N279        N  0.06191837  0.66941702  0.44999285     0.01300
N280        N  0.94259658  0.65272040  0.55798804     0.01100
C281        C  0.90789905  0.64670374  0.61692355     0.42700
N282        N  0.94220555  0.79803551  0.46215425    -0.25600
C283        C  0.11750682  0.76601827  0.56181952    -0.06500
N284        N  0.05706540  0.82039184  0.42551366    -0.46700
N285        N  0.93992746  0.62979043  0.59207753    -0.46900
C286        C  0.11444577  0.80756631  0.57695743     0.42400
N287        N  0.07285288  0.67107588  0.54272630     0.01300
N288        N  0.95404872  0.80146299  0.55211294    -0.25600
N289        N  0.07163153  0.75935503  0.44915215    -0.26100
N290        N  0.92235651  0.77412128  0.55720620     0.00900
H291        H  0.96090018  0.86304246  0.57524353     0.06800
H292        H  0.86595044  0.70383258  0.60550686     0.06900
N293        N  0.04000705  0.64490075  0.54671264    -0.26100
N294        N  0.90372763  0.68092056  0.46933848    -0.25700
N295        N  0.05575827  0.79315907  0.54106611     0.01300
C296        C  0.06161577  0.63765256  0.39040641     0.42700
C297        C  0.92576251  0.82622244  0.43569662    -0.07000
N298        N  0.91495916  0.68382981  0.55987227    -0.25700
H299        H  0.84817189  0.70020554  0.43201202     0.06900
N300        N  0.08186765  0.66737906  0.41263721    -0.47000
H301        H  0.94137881  0.85491319  0.42837020     0.06800
C302        C  0.90191222  0.82411784  0.59773395     0.42500
C303        C  0.10373109  0.76692598  0.42081848    -0.06500
Co304      Co  0.99914998  0.79665730  0.50143463     0.73800
N305        N  0.87526933  0.77659673  0.44483855    -0.46700
C306        C  0.08743415  0.63922925  0.59982713     0.42800
N307        N  0.07557327  0.82303512  0.56245904    -0.46700
Co308      Co  0.91285014  0.72704337  0.51350648     0.73900
C309        C  0.89096702  0.68208358  0.59537130    -0.07000
C310        C  0.02654304  0.62141680  0.41763823    -0.06500
N311        N  0.08102179  0.76027633  0.53910936    -0.26100
N312        N  0.92330552  0.62693643  0.43236677    -0.46800
H313        H  0.02390497  0.60093085  0.59463214     0.06800
C314        C  0.94419527  0.83398730  0.57666377    -0.07000
Cl315      Cl  0.99256634  0.72130366  0.50409121    -0.50000
C316        C  0.88083177  0.81159216  0.42441467     0.42600
H317        H  0.14592433  0.74584599  0.56199605     0.06800
N318        N  0.89085098  0.78671198  0.58359976    -0.46700
C319        C  0.64074594  0.90101122  0.65964054     0.01300
C320        C  0.65880138  0.86156674  0.66049153     0.04100
C321        C  0.70252295  0.85440198  0.64578917    -0.11900
C322        C  0.72974936  0.88734584  0.63356450     0.23400
C323        C  0.71069880  0.92642075  0.63038025    -0.12500
C324        C  0.66553268  0.93253589  0.64087798     0.04800
C325        C  0.77829352  0.88057223  0.62564304     0.27200
C326        C  0.80611519  0.86928138  0.65924505    -0.13200
C327        C  0.84912810  0.85399768  0.65076673     0.05300
C328        C  0.86581341  0.85296073  0.60918931    -0.09200
C329        C  0.84085212  0.87084615  0.57682258     0.06200
C330        C  0.79641601  0.88264490  0.58447375    -0.13500
Br331      Br  0.74704652  0.97241309  0.61536698    -0.05600
Br332      Br  0.62375542  0.81771664  0.68302697     0.00000
Br333      Br  0.88482074  0.83290798  0.69563430     0.00500
Br334      Br  0.75961017  0.89828315  0.53787027    -0.03900
Br335      Br  0.63804958  0.98434298  0.63013496     0.00600
Br336      Br  0.72565214  0.79962144  0.64377000    -0.03200
Br337      Br  0.78453299  0.87314310  0.71668609    -0.04100
Br338      Br  0.86720778  0.87833603  0.52178159    -0.00100
C339        C  0.35871001  0.90856376  0.66806539     0.01300
C340        C  0.35395213  0.86659235  0.65983091     0.04100
C341        C  0.31505896  0.85173140  0.64051033    -0.11900
C342        C  0.28068731  0.87881853  0.62969939     0.23400
C343        C  0.28635151  0.92089203  0.63619908    -0.12500
C344        C  0.32495525  0.93569056  0.65572975     0.04800
C345        C  0.23705245  0.86302846  0.61511482     0.27200
C346        C  0.23078004  0.85240163  0.57247955    -0.13200
C347        C  0.19021590  0.83519916  0.55955020     0.05300
C348        C  0.15435247  0.83140558  0.58863696    -0.09200
C349        C  0.16020008  0.84370112  0.63088703     0.06200
C350        C  0.20177847  0.85838337  0.64434128    -0.13500
Br351      Br  0.23992936  0.95804088  0.62020445    -0.05600
Br352      Br  0.39899095  0.82925317  0.67833340     0.00000
Br353      Br  0.18572041  0.81425501  0.50259863     0.00500
Br354      Br  0.21147364  0.87000029  0.70333865    -0.03900
Br355      Br  0.32981863  0.99302640  0.66848674     0.00600
Br356      Br  0.30752937  0.79410350  0.63104288    -0.03200
Br357      Br  0.27836825  0.86049771  0.53212029    -0.04100
Br358      Br  0.11207997  0.83762250  0.67092448    -0.00100
C359        C  0.88056470  0.15947296  0.62603375     0.01300
C360        C  0.86085989  0.12856228  0.60110810     0.04100
C361        C  0.81854371  0.11336329  0.61215223    -0.11900
C362        C  0.79666907  0.12752198  0.64904196     0.23400
C363        C  0.81812111  0.15562291  0.67582791    -0.12500
C364        C  0.85967089  0.17183155  0.66414510     0.04800
C365        C  0.75174478  0.11195400  0.66057020     0.27200
C366        C  0.71321075  0.13481572  0.65200147    -0.13200
C367        C  0.67110734  0.12157398  0.66644103     0.05300
C368        C  0.66717998  0.08484539  0.68867354    -0.09200
C369        C  0.70597545  0.06082633  0.69503192     0.06200
C370        C  0.74792586  0.07489089  0.68179375    -0.13500
Br371      Br  0.78961516  0.17306495  0.72779346    -0.05600
Br372      Br  0.89001827  0.10844066  0.55046270     0.00000
Br373      Br  0.61957238  0.15542966  0.65871728     0.00500
Br374      Br  0.80103557  0.04441377  0.69464046    -0.03900
Br375      Br  0.88741712  0.21248580  0.69956658     0.00600
Br376      Br  0.78909565  0.07496191  0.57545085    -0.03200
Br377      Br  0.71869854  0.18512787  0.62180780    -0.04100
Br378      Br  0.70336295  0.00809324  0.72166987    -0.00100
C379        C  0.37190806  0.11317647  0.68204756     0.01300
C380        C  0.36170809  0.09755066  0.64138692     0.04100
C381        C  0.32019967  0.10638407  0.62311606    -0.11900
C382        C  0.29003469  0.13286553  0.64384649     0.23400
C383        C  0.30187671  0.15148800  0.68214483    -0.12500
C384        C  0.34235761  0.14171373  0.70113235     0.04800
C385        C  0.24787960  0.14520056  0.62363834     0.27200
C386        C  0.24895978  0.17617971  0.59366754    -0.13200
C387        C  0.20922326  0.19142105  0.57711233     0.05300
C388        C  0.16721485  0.17807119  0.59329931    -0.09200
C389        C  0.16658435  0.14733508  0.62417774     0.06200
C390        C  0.20675158  0.12997282  0.63800887    -0.13500
Br391      Br  0.26213103  0.19073442  0.70865316    -0.05600
Br392      Br  0.40361033  0.06440140  0.60979712     0.00000
Br393      Br  0.21515221  0.22974084  0.53133897     0.00500
Br394      Br  0.20596439  0.08645854  0.67829569    -0.03900
Br395      Br  0.35698661  0.16941685  0.75280465     0.00600
Br396      Br  0.30366117  0.08137650  0.57021500    -0.03200
Br397      Br  0.30557536  0.19959812  0.57739156    -0.04100
Br398      Br  0.11171605  0.13161397  0.65136965    -0.00100
C399        C  0.64100370  0.90639897  0.31431901     0.01300
C400        C  0.64848668  0.86491933  0.32207231     0.04100
C401        C  0.69046077  0.85154697  0.33582737    -0.11900
C402        C  0.72422816  0.87992588  0.34556780     0.23400
C403        C  0.71668823  0.92151122  0.33828786    -0.12500
C404        C  0.67624567  0.93432595  0.32068417     0.04800
C405        C  0.76585909  0.86604849  0.36648533     0.27200
C406        C  0.76320588  0.85186320  0.40812399    -0.13200
C407        C  0.80039029  0.83380511  0.42690966     0.05300
C408        C  0.84236105  0.83342794  0.40574931    -0.09200
C409        C  0.84549936  0.84959890  0.36480439     0.06200
C410        C  0.80717265  0.86481229  0.34479572    -0.13500
Br411      Br  0.76184689  0.96102265  0.35223314    -0.05600
Br412      Br  0.60166085  0.82617414  0.31214061     0.00000
Br413      Br  0.79127103  0.80752665  0.48064505     0.00500
Br414      Br  0.81072358  0.88151921  0.28676129    -0.03900
Br415      Br  0.67140811  0.98953237  0.30188255     0.00600
Br416      Br  0.70245751  0.79408183  0.33990607    -0.03200
Br417      Br  0.70758811  0.85636270  0.43915790    -0.04100
Br418      Br  0.90125316  0.84681556  0.33430882    -0.00100
C419        C  0.13004705  0.83431119  0.38866762     0.01300
C420        C  0.14672073  0.86681191  0.41361666     0.04100
C421        C  0.18856948  0.88384177  0.40396051    -0.11900
C422        C  0.21229310  0.87078524  0.36771795     0.23400
C423        C  0.19344075  0.84161927  0.34043656    -0.12500
C424        C  0.15305011  0.82281673  0.35135249     0.04800
C425        C  0.25595089  0.88916900  0.35670178     0.27200
C426        C  0.25705356  0.92683245  0.33638071    -0.13200
C427        C  0.29758382  0.94252913  0.32143824     0.05300
C428        C  0.33776794  0.92000158  0.32602161    -0.09200
C429        C  0.33668153  0.88302639  0.34805746     0.06200
C430        C  0.29588246  0.86781845  0.36361135    -0.13500
Br431      Br  0.22331513  0.82734572  0.28806818    -0.05600
Br432      Br  0.11360969  0.88791918  0.46164151     0.00000
Br433      Br  0.29594616  0.99488787  0.29394141     0.00500
Br434      Br  0.29400033  0.81672139  0.39276373    -0.03900
Br435      Br  0.12913312  0.78154147  0.31454799     0.00600
Br436      Br  0.21449927  0.92405352  0.44110604    -0.03200
Br437      Br  0.20210481  0.95581821  0.32680360    -0.04100
Br438      Br  0.39014198  0.85126241  0.35353485    -0.00100
C439        C  0.85032818  0.15662353  0.42056643     0.01300
C440        C  0.81038461  0.15708005  0.44470341     0.04100
C441        C  0.77015915  0.14437735  0.42659816    -0.11900
C442        C  0.76980921  0.12758305  0.38549856     0.23400
C443        C  0.81048829  0.12263777  0.36320348    -0.12500
C444        C  0.85043770  0.13807930  0.38025621     0.04800
C445        C  0.72642424  0.11746527  0.36524304     0.27200
C446        C  0.70037445  0.08473631  0.37990365    -0.13200
C447        C  0.65797362  0.07725394  0.36281707     0.05300
C448        C  0.64358736  0.09941664  0.32745133    -0.09200
C449        C  0.66893712  0.13288420  0.31376993     0.06200
C450        C  0.70953611  0.14253915  0.33327488    -0.13500
Br451      Br  0.81099561  0.09637408  0.30846985    -0.05600
Br452      Br  0.80987124  0.17546023  0.50289033     0.00000
Br453      Br  0.62026207  0.03687274  0.38869809     0.00500
Br454      Br  0.74173483  0.19054161  0.31644731    -0.03900
Br455      Br  0.90449966  0.13686589  0.34714361     0.00600
Br456      Br  0.71491655  0.15340689  0.45705639    -0.03200
Br457      Br  0.72355631  0.04911601  0.42242571    -0.04100
Br458      Br  0.64660925  0.16684753  0.26948565    -0.00100
C459        C  0.36842941  0.11546585  0.34530652     0.01300
C460        C  0.35380043  0.15608932  0.34472786     0.04100
C461        C  0.31156407  0.16633579  0.36126504    -0.11900
C462        C  0.28218241  0.13531033  0.37417043     0.23400
C463        C  0.29803766  0.09508649  0.37733062    -0.12500
C464        C  0.34202731  0.08582556  0.36527755     0.04800
C465        C  0.23437209  0.14463306  0.38223331     0.27200
C466        C  0.21684445  0.14369554  0.42353242    -0.13200
C467        C  0.17158281  0.15218560  0.43081559     0.05300
C468        C  0.14453024  0.16603072  0.39777904    -0.09200
C469        C  0.16183211  0.16636889  0.35636065     0.06200
C470        C  0.20617479  0.15429136  0.34836516    -0.13500
Br471      Br  0.25867378  0.05189130  0.39460496    -0.05600
Br472      Br  0.39063400  0.19698876  0.31897792     0.00000
Br473      Br  0.14708734  0.14527347  0.48642815     0.00500
Br474      Br  0.22868576  0.15195146  0.29113910    -0.03900
Br475      Br  0.36539926  0.03200804  0.37437745     0.00600
Br476      Br  0.29327300  0.22249118  0.36504493    -0.03200
Br477      Br  0.25554172  0.13375769  0.47057510    -0.04100
Br478      Br  0.12497434  0.18452093  0.31092298    -0.00100
C479        C  0.61186018  0.64573549  0.09115700     0.01300
C480        C  0.56772135  0.65370206  0.10438216     0.04100
C481        C  0.55390595  0.69393833  0.11398229    -0.11900
C482        C  0.58323975  0.72688996  0.10752541     0.23400
C483        C  0.62785635  0.71870688  0.09642970    -0.12500
C484        C  0.64230542  0.67838104  0.08931328     0.04800
C485        C  0.56815405  0.77024333  0.11174987     0.27200
C486        C  0.56099684  0.79350144  0.07524450    -0.13200
C487        C  0.55405419  0.83597432  0.07835852     0.05300
C488        C  0.55389112  0.85573329  0.11824211    -0.09200
C489        C  0.55655379  0.83159011  0.15487935     0.06200
C490        C  0.56534142  0.78948331  0.15162418    -0.13500
Br491      Br  0.66959476  0.76314863  0.09231801    -0.05600
Br492      Br  0.52699876  0.60906462  0.11206025     0.00000
Br493      Br  0.54640106  0.86670776  0.02746360     0.00500
Br494      Br  0.57615913  0.75856859  0.20187228    -0.03900
Br495      Br  0.70407673  0.66849537  0.07722132     0.00600
Br496      Br  0.49628633  0.70327234  0.13928369    -0.03200
Br497      Br  0.56227760  0.76703985  0.02060207    -0.04100
Br498      Br  0.54418424  0.85488154  0.20979173    -0.00100
C499        C  0.59527199  0.15147392  0.12218032     0.01300
C500        C  0.56790545  0.18262181  0.10506955     0.04100
C501        C  0.57931043  0.22379889  0.11079440    -0.11900
C502        C  0.61865608  0.23498875  0.13107688     0.23400
C503        C  0.64690467  0.20496573  0.14659079    -0.12500
C504        C  0.63604740  0.16347292  0.14143085     0.04800
C505        C  0.63173289  0.27851702  0.13114525     0.27200
C506        C  0.65667265  0.29347081  0.09688497    -0.13200
C507        C  0.65903308  0.33548422  0.08994922     0.05300
C508        C  0.63431795  0.36249898  0.11594484    -0.09200
C509        C  0.61252424  0.34792400  0.15222754     0.06200
C510        C  0.61236532  0.30593793  0.16046778    -0.13500
Br511      Br  0.70030058  0.22149208  0.17538436    -0.05600
Br512      Br  0.51582420  0.17247942  0.07144751     0.00000
Br513      Br  0.69689762  0.35587754  0.04532682     0.00500
Br514      Br  0.58506247  0.28546467  0.21110418    -0.03900
Br515      Br  0.68025769  0.12411673  0.15779691     0.00600
Br516      Br  0.54086271  0.26633423  0.09112968    -0.03200
Br517      Br  0.68611050  0.25618534  0.05852992    -0.04100
Br518      Br  0.58157130  0.38525986  0.18949283    -0.00100
C519        C  0.59599009  0.83750704  0.87832960     0.01300
C520        C  0.64086032  0.82429871  0.87575231     0.04100
C521        C  0.65146673  0.78271521  0.87970702    -0.11900
C522        C  0.61802505  0.75443825  0.88994712     0.23400
C523        C  0.57389120  0.76790522  0.89547444    -0.12500
C524        C  0.56263314  0.80864307  0.88756689     0.04800
C525        C  0.62815962  0.71020711  0.89315127     0.27200
C526        C  0.61348373  0.68296032  0.86142427    -0.13200
C527        C  0.61641997  0.64064735  0.86739005     0.05300
C528        C  0.63602419  0.62544279  0.90406293    -0.09200
C529        C  0.65526674  0.65262454  0.93327836     0.06200
C530        C  0.64988536  0.69485564  0.92882466    -0.13500
Br531      Br  0.52862054  0.72991319  0.91324133    -0.05600
Br532      Br  0.68871882  0.86274788  0.86832175     0.00000
Br533      Br  0.59365407  0.60343760  0.82552075     0.00500
Br534      Br  0.67155297  0.73135437  0.97199343    -0.03900
Br535      Br  0.50099291  0.82268418  0.88391703     0.00600
Br536      Br  0.71156516  0.76418107  0.86936163    -0.03200
Br537      Br  0.58947664  0.70381472  0.80977347    -0.04100
Br538      Br  0.69226186  0.63172575  0.97720303    -0.00100
C539        C  0.61350224  0.12147786  0.89522543     0.01300
C540        C  0.64620543  0.13602280  0.92297799     0.04100
C541        C  0.65369929  0.17828415  0.92723621    -0.11900
C542        C  0.62644223  0.20624993  0.90589955     0.23400
C543        C  0.59398510  0.19138545  0.87785479    -0.12500
C544        C  0.58919102  0.14928975  0.87117812     0.04800
C545        C  0.63073181  0.25106720  0.91356777     0.27200
C546        C  0.61262529  0.26881164  0.95053974    -0.13200
C547        C  0.61381822  0.31144178  0.95701640     0.05300
C548        C  0.63446218  0.33697744  0.92681076    -0.09200
C549        C  0.64869949  0.31897944  0.88795366     0.06200
C550        C  0.64878278  0.27636184  0.88230346    -0.13500
Br551      Br  0.55588695  0.22847379  0.84835997    -0.05600
Br552      Br  0.68124942  0.09788707  0.95416520     0.00000
Br553      Br  0.58368681  0.33359221  0.00580603     0.00500
Br554      Br  0.67405616  0.25234531  0.83154743    -0.03900
Br555      Br  0.55221800  0.12942862  0.82640221     0.00600
Br556      Br  0.70228954  0.19783907  0.96086840    -0.03200
Br557      Br  0.58553960  0.23391846  0.99199304    -0.04100
Br558      Br  0.66152999  0.35201895  0.83932423    -0.00100
C559        C  0.83976469  0.59954107  0.87520446     0.01300
C560        C  0.88185443  0.58701965  0.85976290     0.04100
C561        C  0.89399768  0.59486977  0.81762549    -0.11900
C562        C  0.86401549  0.61432492  0.79066768     0.23400
C563        C  0.82305701  0.62862483  0.80656189    -0.12500
C564        C  0.81180054  0.62263956  0.84909178     0.04800
C565        C  0.87652162  0.62174788  0.74613061     0.27200
C566        C  0.89326315  0.66001253  0.73490943    -0.13200
C567        C  0.90475480  0.66780610  0.69280644     0.05300
C568        C  0.89967563  0.63713004  0.66159431    -0.09200
C569        C  0.88374062  0.59847540  0.67296309     0.06200
C570        C  0.87157014  0.59101099  0.71515551    -0.13500
Br571      Br  0.78125622  0.65409068  0.76928635    -0.05600
Br572      Br  0.92190522  0.55662173  0.89446473     0.00000
Br573      Br  0.92864546  0.72051088  0.67892259     0.00500
Br574      Br  0.84614952  0.53952001  0.73035360    -0.03900
Br575      Br  0.75707830  0.64518397  0.87143674     0.00600
Br576      Br  0.95077878  0.57718116  0.79577289    -0.03200
Br577      Br  0.89959380  0.70207685  0.77747518    -0.04100
Br578      Br  0.87646330  0.55648370  0.63051199    -0.00100
C579        C  0.84203871  0.60460407  0.14818874     0.01300
C580        C  0.86895227  0.57720518  0.17064307     0.04100
C581        C  0.88014217  0.58550481  0.21301570    -0.11900
C582        C  0.86198911  0.61978978  0.23411937     0.23400
C583        C  0.83680105  0.64803133  0.21124639    -0.12500
C584        C  0.82897787  0.64134420  0.16804126     0.04800
C585        C  0.86825597  0.62559061  0.28039278     0.27200
C586        C  0.84637528  0.59985162  0.30937738    -0.13200
C587        C  0.85333508  0.60477048  0.35303242     0.05300
C588        C  0.87901468  0.63744091  0.36804355    -0.09200
C589        C  0.89804913  0.66496808  0.33927589     0.06200
C590        C  0.89494303  0.65765552  0.29564363    -0.13500
Br591      Br  0.80956388  0.69416615  0.23969416    -0.05600
Br592      Br  0.88733727  0.52654098  0.14523955     0.00000
Br593      Br  0.82663229  0.56770759  0.39255798     0.00500
Br594      Br  0.92819365  0.69105692  0.25686893    -0.03900
Br595      Br  0.79991750  0.68256282  0.13586208     0.00600
Br596      Br  0.91844578  0.54881917  0.24303568    -0.03200
Br597      Br  0.80573926  0.55872355  0.28949117    -0.04100
Br598      Br  0.92653723  0.71387935  0.35927710    -0.00100
C599        C  0.91951360  0.36110981  0.66863192     0.01300
C600        C  0.94219127  0.33455096  0.69579372     0.04100
C601        C  0.93456273  0.33650676  0.73992830    -0.11900
C602        C  0.90579474  0.36626504  0.75749882     0.23400
C603        C  0.88432019  0.39357135  0.73035183    -0.12500
C604        C  0.89077521  0.39076997  0.68620204     0.04800
C605        C  0.89537945  0.36794969  0.80396336     0.27200
C606        C  0.85721380  0.34824652  0.81963086    -0.13200
C607        C  0.84159869  0.35650048  0.86098632     0.05300
C608        C  0.86259320  0.38612710  0.88673528    -0.09200
C609        C  0.90358414  0.40265473  0.87256425     0.06200
C610        C  0.91997393  0.39319219  0.83146408    -0.13500
Br611      Br  0.84419204  0.43365683  0.75399148    -0.05600
Br612      Br  0.98416132  0.29578459  0.67243901     0.00000
Br613      Br  0.78995791  0.32795428  0.88195135     0.00500
Br614      Br  0.97471747  0.41687965  0.81143532    -0.03900
Br615      Br  0.85874226  0.42647782  0.64951167     0.00600
Br616      Br  0.96137829  0.29706772  0.77614802    -0.03200
Br617      Br  0.82417162  0.31239800  0.78293380    -0.04100
Br618      Br  0.93624026  0.44056586  0.90707677    -0.00100
C619        C  0.88755475  0.35347589  0.36524671     0.01300
C620        C  0.87307099  0.39117151  0.34977057     0.04100
C621        C  0.86539882  0.39592091  0.30644090    -0.11900
C622        C  0.87316612  0.36330117  0.27808318     0.23400
C623        C  0.88899031  0.32597034  0.29319129    -0.12500
C624        C  0.89479988  0.32054079  0.33682310     0.04800
C625        C  0.86229515  0.36802108  0.23278340     0.27200
C626        C  0.82105627  0.35438531  0.21775431    -0.13200
C627        C  0.80746153  0.36479988  0.17701197     0.05300
C628        C  0.83400195  0.39058776  0.15180045    -0.09200
C629        C  0.87791938  0.39907793  0.16454916     0.06200
C630        C  0.89159433  0.38848255  0.20541705    -0.13500
Br631      Br  0.90455588  0.28311357  0.25360626    -0.05600
Br632      Br  0.86222497  0.43614628  0.38824376     0.00000
Br633      Br  0.75249632  0.34313025  0.15558783     0.00500
Br634      Br  0.94904388  0.40453631  0.22558121    -0.03900
Br635      Br  0.91359368  0.26812463  0.35673426     0.00600
Br636      Br  0.84470243  0.44741908  0.28568550    -0.03200
Br637      Br  0.78158957  0.32439363  0.25433939    -0.04100
Br638      Br  0.91947607  0.42510549  0.12703270    -0.00100
C639        C  0.37765857  0.64234367  0.90234207     0.01300
C640        C  0.34256492  0.66622136  0.91908343     0.04100
C641        C  0.33984864  0.70768773  0.90958220    -0.11900
C642        C  0.37267446  0.72568351  0.88397794     0.23400
C643        C  0.40656073  0.70144760  0.86554886    -0.12500
C644        C  0.40919992  0.65978742  0.87499532     0.04800
C645        C  0.37508012  0.77063643  0.88165226     0.27200
C646        C  0.35973915  0.79146843  0.84629556    -0.13200
C647        C  0.36526221  0.83400311  0.84377399     0.05300
C648        C  0.38614273  0.85596376  0.87716344    -0.09200
C649        C  0.39524758  0.83509238  0.91496118     0.06200
C650        C  0.39203449  0.79255611  0.91612483    -0.13500
Br651      Br  0.44927756  0.72544903  0.82756379    -0.05600
Br652      Br  0.29859929  0.64243667  0.95592996     0.00000
Br653      Br  0.34282222  0.86028787  0.79448047     0.00500
Br654      Br  0.41394762  0.76345411  0.96388829    -0.03900
Br655      Br  0.45620523  0.62665449  0.85115341     0.00600
Br656      Br  0.29149963  0.74020881  0.93205923    -0.03200
Br657      Br  0.33226240  0.76101135  0.80104435    -0.04100
Br658      Br  0.41033550  0.86375876  0.96642361    -0.00100
C659        C  0.38295008  0.35434169  0.93799268     0.01300
C660        C  0.42679214  0.33870956  0.93777967     0.04100
C661        C  0.43436167  0.29654880  0.93266684    -0.11900
C662        C  0.39867708  0.26961007  0.92579804     0.23400
C663        C  0.35496608  0.28500593  0.92611341    -0.12500
C664        C  0.34698550  0.32683798  0.93344529     0.04800
C665        C  0.40719179  0.22550306  0.91628479     0.27200
C666        C  0.42068748  0.21317834  0.87540806    -0.13200
C667        C  0.42770535  0.17165386  0.86590209     0.05300
C668        C  0.42145537  0.14184415  0.89716717    -0.09200
C669        C  0.40845532  0.15419597  0.93817581     0.06200
C670        C  0.40110440  0.19574261  0.94753421    -0.13500
Br671      Br  0.30595160  0.24859464  0.91547644    -0.05600
Br672      Br  0.47721749  0.37479778  0.94169401     0.00000
Br673      Br  0.44773197  0.15626098  0.81023351     0.00500
Br674      Br  0.38167525  0.21168409  0.00301445    -0.03900
Br675      Br  0.28633560  0.34521100  0.94009502     0.00600
Br676      Br  0.49385647  0.27544346  0.93473923    -0.03200
Br677      Br  0.42904029  0.25340878  0.83218107    -0.04100
Br678      Br  0.39874097  0.11402736  0.98119752    -0.00100
C679        C  0.35445439  0.67162390  0.06875796     0.01300
C680        C  0.31426969  0.69360809  0.07395678     0.04100
C681        C  0.31507298  0.73500524  0.08500542    -0.11900
C682        C  0.35549511  0.75624582  0.08417397     0.23400
C683        C  0.39477198  0.73597582  0.07133718    -0.12500
C684        C  0.39437991  0.69362876  0.06352133     0.04800
C685        C  0.35728382  0.79984190  0.09661039     0.27200
C686        C  0.34330357  0.83021878  0.06862411    -0.13200
C687        C  0.35045841  0.87149065  0.07861433     0.05300
C688        C  0.37183072  0.88243703  0.11634088    -0.09200
C689        C  0.38462471  0.85204478  0.14492719     0.06200
C690        C  0.37633562  0.81093787  0.13546030    -0.13500
Br691      Br  0.44903912  0.76678122  0.06601252    -0.05600
Br692      Br  0.25844668  0.67017218  0.05697174     0.00000
Br693      Br  0.33076788  0.91329362  0.04092625     0.00500
Br694      Br  0.39135953  0.76945503  0.17553746    -0.03900
Br695      Br  0.44759839  0.66691282  0.04324861     0.00600
Br696      Br  0.26110063  0.76188513  0.10340461    -0.03200
Br697      Br  0.31446472  0.81537573  0.01667757    -0.04100
Br698      Br  0.41643807  0.86586489  0.19572662    -0.00100
C699        C  0.40310406  0.16839272  0.13483883     0.01300
C700        C  0.36654463  0.18584972  0.11424891     0.04100
C701        C  0.36106434  0.22845821  0.11402599    -0.11900
C702        C  0.39235971  0.25374605  0.13406865     0.23400
C703        C  0.42786448  0.23622489  0.15614765    -0.12500
C704        C  0.43315364  0.19367457  0.15671539     0.04800
C705        C  0.38899893  0.29875513  0.13078875     0.27200
C706        C  0.41221003  0.31873057  0.09845343    -0.13200
C707        C  0.41302653  0.36124877  0.09721505     0.05300
C708        C  0.38310594  0.38422815  0.12262090    -0.09200
C709        C  0.36248371  0.36462883  0.15737103     0.06200
C710        C  0.36571794  0.32196807  0.16143390    -0.13500
Br711      Br  0.46796378  0.27074644  0.18714473    -0.05600
Br712      Br  0.32363706  0.15118824  0.08698545     0.00000
Br713      Br  0.46112591  0.38643724  0.06641118     0.00500
Br714      Br  0.33739428  0.29492040  0.20820497    -0.03900
Br715      Br  0.48037239  0.16992168  0.18912140     0.00600
Br716      Br  0.31021246  0.25254227  0.08733623    -0.03200
Br717      Br  0.43991168  0.28835710  0.05325493    -0.04100
Br718      Br  0.33585328  0.39562247  0.20309027    -0.00100
C719        C  0.10117180  0.63524053  0.64430780     0.01300
C720        C  0.08445896  0.66240867  0.67541732     0.04100
C721        C  0.09548507  0.65725705  0.71815518    -0.11900
C722        C  0.12541181  0.62641842  0.72965042     0.23400
C723        C  0.14297272  0.59992410  0.69836566    -0.12500
C724        C  0.13015710  0.60378668  0.65596836     0.04800
C725        C  0.13944880  0.62208715  0.77434009     0.27200
C726        C  0.17695324  0.64322179  0.78907638    -0.13200
C727        C  0.19324546  0.63584008  0.82976073     0.05300
C728        C  0.17321929  0.60612559  0.85558251    -0.09200
C729        C  0.13445902  0.58607780  0.84134444     0.06200
C730        C  0.11760786  0.59438799  0.80097334    -0.13500
Br731      Br  0.18506205  0.55863796  0.71382664    -0.05600
Br732      Br  0.04715310  0.70715850  0.65927672     0.00000
Br733      Br  0.24403619  0.66590386  0.84959502     0.00500
Br734      Br  0.06655424  0.56550968  0.78037803    -0.03900
Br735      Br  0.15263358  0.56629839  0.61368192     0.00600
Br736      Br  0.06902998  0.69176054  0.76114332    -0.03200
Br737      Br  0.20814864  0.67981550  0.75198695    -0.04100
Br738      Br  0.10656243  0.54417130  0.87453353    -0.00100
C739        C  0.06519362  0.63362258  0.34386487     0.01300
C740        C  0.05879361  0.66792920  0.31816216     0.04100
C741        C  0.06719340  0.66540316  0.27443097    -0.11900
C742        C  0.08343059  0.62899317  0.25627601     0.23400
C743        C  0.08781293  0.59425012  0.28156174    -0.12500
C744        C  0.07768414  0.59627083  0.32505744     0.04800
C745        C  0.10217283  0.62876698  0.21255212     0.27200
C746        C  0.07813694  0.61296364  0.17820338    -0.13200
C747        C  0.09877552  0.60817953  0.13803296     0.05300
C748        C  0.14429728  0.61866621  0.13229047    -0.09200
C749        C  0.16597025  0.63919555  0.16610079     0.06200
C750        C  0.14544667  0.64334443  0.20594604    -0.13500
Br751      Br  0.11147045  0.54490810  0.25709744    -0.05600
Br752      Br  0.03881961  0.71869692  0.34256391     0.00000
Br753      Br  0.06333217  0.58735198  0.09246409     0.00500
Br754      Br  0.17775885  0.66702591  0.25273936    -0.03900
Br755      Br  0.08384664  0.54854450  0.35929723     0.00600
Br756      Br  0.05902454  0.71236732  0.23943842    -0.03200
Br757      Br  0.01721740  0.59670513  0.18717541    -0.04100
Br758      Br  0.22434908  0.66232896  0.15929813    -0.00100
C759        C  0.16425954  0.42035912  0.85749730     0.01300
C760        C  0.13147162  0.38992031  0.85472089     0.04100
C761        C  0.11392652  0.37860229  0.81507336    -0.11900
C762        C  0.13043603  0.39656971  0.77781316     0.23400
C763        C  0.16309884  0.42699720  0.78063355    -0.12500
C764        C  0.17790258  0.44056151  0.82019240     0.04800
C765        C  0.11404782  0.38449398  0.73524287     0.27200
C766        C  0.12770815  0.34761846  0.71629225    -0.13200
C767        C  0.11632671  0.33861256  0.67424673     0.05300
C768        C  0.09809011  0.36931823  0.64832379    -0.09200
C769        C  0.08425290  0.40638621  0.66778639     0.06200
C770        C  0.08957949  0.41249873  0.71149391    -0.13500
Br771      Br  0.18986784  0.44837156  0.72974396    -0.05600
Br772      Br  0.11178476  0.36288902  0.90512422     0.00000
Br773      Br  0.12082130  0.28250067  0.65623716     0.00500
Br774      Br  0.06501403  0.46025952  0.73893264    -0.03900
Br775      Br  0.21452982  0.48876906  0.82197086     0.00600
Br776      Br  0.06854599  0.33754012  0.81169057    -0.03200
Br777      Br  0.16437657  0.31018042  0.74706525    -0.04100
Br778      Br  0.06044865  0.45067694  0.63535554    -0.00100
C779        C  0.08028145  0.37422818  0.34669674     0.01300
C780        C  0.11234280  0.40350134  0.33574404     0.04100
C781        C  0.12256762  0.41065892  0.29299520    -0.11900
C782        C  0.10033619  0.38894141  0.26086053     0.23400
C783        C  0.06840201  0.35950580  0.27176161    -0.12500
C784        C  0.05893458  0.35177091  0.31457196     0.04800
C785        C  0.11310910  0.39543843  0.21593522     0.27200
C786        C  0.09547116  0.42851705  0.19372897    -0.13200
C787        C  0.11375079  0.43931511  0.15433479     0.05300
C788        C  0.14910170  0.41641646  0.13649314    -0.09200
C789        C  0.16437994  0.38156276  0.15731433     0.06200
C790        C  0.14651398  0.37110775  0.19693632    -0.13500
Br791      Br  0.03961047  0.32834093  0.22795031    -0.05600
Br792      Br  0.14435988  0.43179740  0.37951181     0.00000
Br793      Br  0.09377229  0.48826312  0.12772900     0.00500
Br794      Br  0.17000080  0.32513189  0.22666348    -0.03900
Br795      Br  0.01933204  0.30824731  0.32928015     0.00600
Br796      Br  0.16930860  0.44819963  0.27833386    -0.03200
Br797      Br  0.04825293  0.46061033  0.21869184    -0.04100
Br798      Br  0.21201659  0.34965991  0.13251220    -0.00100
loop_ 
_geom_bond_atom_site_label_1 
_geom_bond_atom_site_label_2 
_geom_bond_distance 
_geom_bond_site_symmetry_2 
_ccdc_geom_bond_type 
C1           N19   1.355       .  A
C1           C38   1.469       .  S
C1          C708   1.501       .  S
N2           N19   1.324       .  A
N2           N24   1.312       .  A
N2          Co39   2.089       .  S
C3           N28   1.354       .  A
C3           C41   1.488       .  S
C3           H48   1.078       .  S
H4           C45   1.081       .  S
C5           N29   1.331       .  A
C5            C9   1.449       .  S
C5           H34   1.082       .  S
Co6          N24   2.070       .  S
Co6          N14   2.081       .  S
Co6          N46   2.087       .  S
Co6          N22   2.064       .  S
Co6         Cl50   2.424       .  S
N7           C45   1.347       .  A
N7           N14   1.326       .  A
N7           Co8   2.114   1_554  S
Co8          N11   2.119       .  S
Co8          N28   2.124   1_556  S
Co8          N15   2.107       .  S
Co8         Cl50   2.492   1_556  S
C9           N47   1.361       .  A
C9          C759   1.491       .  S
N10          N17   1.318       .  A
N10          N40   1.327       .  A
N10         Co43   2.091       .  S
N11          N29   1.318       .  A
N11          N47   1.332       .  A
N12          C41   1.345       .  A
N12          N22   1.319       .  A
H13          C38   1.077       .  S
N14          N35   1.319       .  A
N15          N33   1.324       .  A
N15          N20   1.329       .  A
C16          N20   1.358       .  A
C16          C44   1.454       .  S
C16         C728   1.487       .  S
N17          C32   1.344       .  A
N17         Co39   2.099   1_556  S
C18          N46   1.336       .  A
C18          C21   1.458       .  S
C18          H52   1.077       .  S
C21          N42   1.352       .  A
C21         C679   1.492       .  S
N22          N28   1.318       .  A
N23          C49   1.344       .  A
N23          N25   1.313       .  A
N23         Co39   2.085   1_556  S
N24          C38   1.340       .  A
N25          N53   1.321       .  A
N25         Co43   2.062       .  S
H26          C49   1.081       .  S
H27          C44   1.082       .  S
N29         Co43   2.052       .  S
N30          N42   1.328       .  A
N30          N46   1.320       .  A
N30         Co39   2.093       .  S
C31          N35   1.344       .  A
C31          C45   1.470       .  S
C31         C788   1.478       .  S
C32          C51   1.465       .  S
C32          H36   1.059       .  S
N33          C44   1.335       .  A
N33         Co43   2.093       .  S
C37          N53   1.347       .  A
C37          C49   1.464       .  S
C37         C639   1.472       .  S
Co39        Cl50   2.477       .  S
N40          C51   1.352       .  A
C41         C748   1.509       .  S
Co43        Cl50   2.415   1_556  S
C51         C659   1.497       .  S
C54          N72   1.359       .  A
C54          C91   1.454       .  S
C54         C628   1.489       .  S
N55          N72   1.332       .  A
N55          N77   1.323       .  A
N55         Co92   2.112       .  S
C56          N81   1.348       .  A
C56          C94   1.467       .  S
C56         H101   1.081       .  S
H57          C98   1.077       .  S
C58          N82   1.335       .  A
C58          C62   1.460       .  S
C58          H87   1.079       .  S
Co59         N77   2.087       .  S
Co59         N67   2.069       .  S
Co59         N99   2.058       .  S
Co59         N75   2.093       .  S
Co59       Cl103   2.418       .  S
N60          C98   1.339       .  A
N60          N67   1.315       .  A
N60         Co61   2.082       .  S
Co61         N64   2.129   1_554  S
Co61         N81   2.112       .  S
Co61         N68   2.089   1_554  S
Co61       Cl103   2.490       .  S
C62         N100   1.363       .  A
C62         C548   1.510       .  S
N63          N70   1.319       .  A
N63          N93   1.320       .  A
N63         Co96   2.068       .  S
N64          N82   1.318       .  A
N64         N100   1.334       .  A
N65          C94   1.351       .  A
N65          N75   1.327       .  A
H66          C91   1.081       .  S
N67          N88   1.323       .  A
N68          N86   1.315       .  A
N68          N73   1.326       .  A
C69          N73   1.355       .  A
C69          C97   1.455       .  S
C69         C528   1.479       .  S
N70          C85   1.355       .  A
N70         Co92   2.123   1_556  S
C71          N99   1.333       .  A
C71          C74   1.450       .  S
C71         H105   1.082       .  S
C74          N95   1.361       .  A
C74         C579   1.489       .  S
N75          N81   1.321       .  A
N76         C102   1.350       .  A
N76          N78   1.323       .  A
N76         Co92   2.111   1_556  S
N77          C91   1.333       .  A
N78         N106   1.314       .  A
N78         Co96   2.066       .  S
H79         C102   1.081       .  S
H80          C97   1.080       .  S
N82         Co96   2.075       .  S
N83          N95   1.332       .  A
N83          N99   1.319       .  A
N83         Co92   2.123       .  S
C84          N88   1.346       .  A
C84          C98   1.465       .  S
C84         C508   1.472       .  S
C85         C104   1.483       .  S
C85          H89   1.081       .  S
N86          C97   1.340       .  A
N86         Co96   2.076       .  S
C90         N106   1.339       .  A
C90         C102   1.476       .  S
C90         C559   1.476       .  S
Co92       Cl103   2.494       .  S
N93         C104   1.345       .  A
C94         C479   1.494       .  S
Co96       Cl103   2.416   1_556  S
C104        C608   1.503       .  S
C107        N125   1.357       .  A
C107        C144   1.451       .  S
C107        C699   1.479       .  S
N108        N125   1.330       .  A
N108        N130   1.319       .  A
N108       Co145   2.113       .  S
C109        N134   1.354       .  A
C109        C147   1.481       .  S
C109        H154   1.081       .  S
H110        C151   1.081       .  S
C111        N135   1.339       .  A
C111        C115   1.461       .  S
C111        H140   1.081       .  S
Co112       N130   2.071       .  S
Co112       N120   2.078       .  S
Co112       N152   2.068   1_545  S
Co112       N128   2.059   1_545  S
Co112      Cl156   2.407       .  S
N113        C151   1.345       .  A
N113        N120   1.319       .  A
N113       Co114   2.091       .  S
Co114       N117   2.095       .  S
Co114       N134   2.125   1_545  S
Co114       N121   2.131   1_545  S
Co114      Cl156   2.499       .  S
C115        N153   1.353       .  A
C115        C448   1.489       .  S
N116        N123   1.311       .  A
N116        N146   1.322       .  A
N116       Co149   2.078       .  S
N117        N135   1.322       .  A
N117        N153   1.328       .  A
N118        C147   1.335       .  A
N118        N128   1.313       .  A
H119        C144   1.081       .  S
N120        N141   1.319       .  A
N121        N139   1.321       .  A
N121        N126   1.334       .  A
C122        N126   1.364       .  A
C122        C150   1.445       .  S
C122        C399   1.489       .  S
N123        C138   1.337       .  A
N123       Co145   2.074       .  S
C124        N152   1.339       .  A
C124        C127   1.455       .  S
C124        H158   1.081       .  S
C127        N148   1.350       .  A
C127        C688   1.474       .  S
N128        N134   1.322       .  A
N129        C155   1.348       .  A
N129        N131   1.320       .  A
N129       Co145   2.098   1_565  S
N130        C144   1.338       .  A
N131        N159   1.327       .  A
N131       Co149   2.103   1_565  S
H132        C155   1.079       .  S
H133        C150   1.082       .  S
N135       Co149   2.095       .  S
N136        N148   1.325       .  A
N136        N152   1.314       .  A
N136       Co145   2.085   1_565  S
C137        N141   1.346       .  A
C137        C151   1.468       .  S
C137        C459   1.474       .  S
C138        C157   1.475       .  S
C138        H142   1.072       .  S
N139        C150   1.332       .  A
N139       Co149   2.056   1_565  S
C143        N159   1.353       .  A
C143        C155   1.463       .  S
C143        C488   1.500       .  S
Co145      Cl156   2.485       .  S
N146        C157   1.355       .  A
C147        C428   1.489       .  S
Co149      Cl156   2.408       .  S
C157        C499   1.511       .  S
C160        N178   1.361       .  A
C160        C197   1.454       .  S
C160        C379   1.495       .  S
N161        N178   1.331       .  A
N161        N183   1.321       .  A
N161       Co198   2.118       .  S
C162        N187   1.335       .  A
C162        C200   1.468       .  S
C162        H207   1.078       .  S
H163        C204   1.081       .  S
C164        N188   1.340       .  A
C164        C168   1.459       .  S
C164        H193   1.081       .  S
Co165       N183   2.068       .  S
Co165       N173   2.086       .  S
Co165       N205   2.071   1_545  S
Co165       N181   2.085   1_545  S
Co165      Cl209   2.427   1_545  S
N166        C204   1.346       .  A
N166        N173   1.320       .  A
N166       Co167   2.106   1_545  S
Co167       N170   2.092   1_565  S
Co167       N187   2.081       .  S
Co167       N174   2.119       .  S
Co167      Cl209   2.477       .  S
C168        N206   1.356       .  A
C168        C539   1.482       .  S
N169        N176   1.322       .  A
N169        N199   1.315       .  A
N169       Co202   2.061   1_545  S
N170        N188   1.314       .  A
N170        N206   1.327       .  A
N171        C200   1.353       .  A
N171        N181   1.327       .  A
H172        C197   1.082       .  S
N173        N194   1.326       .  A
N174        N192   1.318       .  A
N174        N179   1.331       .  A
C175        N179   1.360       .  A
C175        C203   1.454       .  S
C175        C519   1.495       .  S
N176        C191   1.354       .  A
N176       Co198   2.126       .  S
C177        N205   1.332       .  A
C177        C180   1.450       .  S
C177        H211   1.080       .  S
C180        N201   1.358       .  A
C180        C339   1.479       .  S
N181        N187   1.315       .  A
N182        C208   1.346       .  A
N182        N184   1.320       .  A
N182       Co198   2.092   1_565  S
N183        C197   1.333       .  A
N184        N212   1.321       .  A
N184       Co202   2.085       .  S
H185        C208   1.082       .  S
H186        C203   1.080       .  S
N188       Co202   2.080   1_545  S
N189        N201   1.331       .  A
N189        N205   1.322       .  A
N189       Co198   2.117   1_565  S
C190        N194   1.350       .  A
C190        C204   1.464       .  S
C190        C668   1.489       .  S
C191        C210   1.481       .  S
C191        H195   1.081       .  S
N192        C203   1.336       .  A
N192       Co202   2.064       .  S
C196        N212   1.347       .  A
C196        C208   1.469       .  S
C196        C319   1.481       .  S
Co198      Cl209   2.493   1_545  S
N199        C210   1.337       .  A
C200        C648   1.501       .  S
Co202      Cl209   2.411       .  S
C210        C368   1.492       .  S
C213        N231   1.355       .  A
C213        C250   1.451       .  S
C213        C779   1.481       .  S
N214        N231   1.331       .  A
N214        N236   1.318       .  A
N214       Co251   2.116   1_455  S
C215        N240   1.350       .  A
C215        C253   1.481       .  S
C215        H260   1.081       .  S
H216        C257   1.081       .  S
C217        N241   1.330       .  A
C217        C221   1.446       .  S
C217        H246   1.082       .  S
Co218       N236   2.066       .  S
Co218       N226   2.084       .  S
Co218       N258   2.082       .  S
Co218       N234   2.064       .  S
Co218      Cl262   2.413       .  S
N219        C257   1.348       .  A
N219        N226   1.323       .  A
N219       Co220   2.110       .  S
Co220       N223   2.128   1_455  S
Co220       N240   2.114       .  S
Co220       N227   2.108   1_455  S
Co220      Cl262   2.493       .  S
C221        N259   1.363       .  A
C221        C439   1.490       .  S
N222        N229   1.317       .  A
N222        N252   1.327       .  A
N222       Co255   2.088       .  S
N223        N241   1.322       .  A
N223        N259   1.335       .  A
N224        C253   1.339       .  A
N224        N234   1.315       .  A
H225        C250   1.081       .  S
N226        N247   1.320       .  A
N227        N245   1.321       .  A
N227        N232   1.330       .  A
C228        N232   1.358       .  A
C228        C256   1.450       .  S
C228        C359   1.481       .  S
N229        C244   1.339       .  A
N229       Co251   2.073       .  S
C230        N258   1.341       .  A
C230        C233   1.467       .  S
C230        H264   1.076       .  S
C233        N254   1.349       .  A
C233        C768   1.498       .  S
N234        N240   1.320       .  A
N235        C261   1.350       .  A
N235        N237   1.316       .  A
N235       Co251   2.105       .  S
N236        C250   1.339       .  A
N237        N265   1.327       .  A
N237       Co255   2.086       .  S
H238        C261   1.080       .  S
H239        C256   1.082       .  S
N241       Co255   2.063       .  S
N242        N254   1.322       .  A
N242        N258   1.314       .  A
N242       Co251   2.073   1_455  S
C243        N247   1.345       .  A
C243        C257   1.474       .  S
C243        C468   1.482       .  S
C244        C263   1.455       .  S
C244        H248   1.080       .  S
N245        C256   1.331       .  A
N245       Co255   2.069       .  S
C249        N265   1.350       .  A
C249        C261   1.464       .  S
C249        C599   1.492       .  S
Co251      Cl262   2.485   1_655  S
N252        C263   1.350       .  A
C253        C388   1.498       .  S
Co255      Cl262   2.409   1_655  S
C263        C619   1.480       .  S
C266        N284   1.355       .  A
C266        C303   1.457       .  S
C266        C419   1.486       .  S
N267        N284   1.328       .  A
N267        N289   1.322       .  A
N267       Co304   2.097   1_455  S
C268        N293   1.344       .  A
C268        C306   1.460       .  S
C268        H313   1.081       .  S
H269        C310   1.080       .  S
C270        N294   1.339       .  A
C270        C274   1.457       .  S
C270        H299   1.081       .  S
Co271       N289   2.087       .  S
Co271       N279   2.077       .  S
Co271       N311   2.056       .  S
Co271       N287   2.090       .  S
Co271      Cl315   2.422   1_455  S
N272        C310   1.346       .  A
N272        N279   1.319       .  A
N272       Co273   2.097   1_455  S
Co273       N276   2.089       .  S
Co273       N293   2.087   1_655  S
Co273       N280   2.096       .  S
Co273      Cl315   2.476       .  S
C274        N312   1.352       .  A
C274        C588   1.475       .  S
N275        N282   1.321       .  A
N275        N305   1.316       .  A
N275       Co308   2.057       .  S
N276        N294   1.316       .  A
N276        N312   1.325       .  A
N277        C306   1.351       .  A
N277        N287   1.327       .  A
H278        C303   1.082       .  S
N279        N300   1.323       .  A
N280        N298   1.318       .  A
N280        N285   1.327       .  A
C281        N285   1.353       .  A
C281        C309   1.451       .  S
C281        C568   1.473       .  S
N282        C297   1.354       .  A
N282       Co304   2.129       .  S
C283        N311   1.331       .  A
C283        C286   1.445       .  S
C283        H317   1.082       .  S
C286        N307   1.361       .  A
C286        C348   1.482       .  S
N287        N293   1.317       .  A
N288        C314   1.346       .  A
N288        N290   1.321       .  A
N288       Co304   2.097       .  S
N289        C303   1.338       .  A
N290        N318   1.321       .  A
N290       Co308   2.087       .  S
H291        C314   1.081       .  S
H292        C309   1.082       .  S
N294       Co308   2.072       .  S
N295        N307   1.332       .  A
N295        N311   1.322       .  A
N295       Co304   2.131   1_455  S
C296        N300   1.348       .  A
C296        C310   1.462       .  S
C296        C739   1.483       .  S
C297        C316   1.481       .  S
C297        H301   1.081       .  S
N298        C309   1.333       .  A
N298       Co308   2.059       .  S
C302        N318   1.348       .  A
C302        C314   1.469       .  S
C302        C328   1.481       .  S
Co304      Cl315   2.489       .  S
N305        C316   1.337       .  A
C306        C719   1.481       .  S
Co308      Cl315   2.421       .  S
C316        C408   1.493       .  S
C319        C320   1.407       .  A
C319        C324   1.412       .  A
C320        C321   1.410       .  A
C320       Br332   1.928       .  S
C321        C322   1.415       .  A
C321       Br336   1.931       .  S
C322        C325   1.495       .  S
C322        C323   1.412       .  A
C323        C324   1.409       .  A
C323       Br331   1.929       .  S
C324       Br335   1.929       .  S
C325        C326   1.414       .  A
C325        C330   1.412       .  A
C326        C327   1.410       .  A
C326       Br337   1.930       .  S
C327        C328   1.406       .  A
C327       Br333   1.926       .  S
C328        C329   1.412       .  A
C329        C330   1.409       .  A
C329       Br338   1.928       .  S
C330       Br334   1.930       .  S
C339        C340   1.410       .  A
C339        C344   1.412       .  A
C340        C341   1.411       .  A
C340       Br352   1.928       .  S
C341        C342   1.412       .  A
C341       Br356   1.930       .  S
C342        C345   1.488       .  S
C342        C343   1.407       .  A
C343        C344   1.406       .  A
C343       Br351   1.930       .  S
C344       Br355   1.930       .  S
C345        C346   1.407       .  A
C345        C350   1.411       .  A
C346        C347   1.408       .  A
C346       Br357   1.931       .  S
C347        C348   1.419       .  A
C347       Br353   1.931       .  S
C348        C349   1.407       .  A
C349        C350   1.410       .  A
C349       Br358   1.928       .  S
C350       Br354   1.930       .  S
C359        C360   1.415       .  A
C359        C364   1.411       .  A
C360        C361   1.411       .  A
C360       Br372   1.931       .  S
C361        C362   1.410       .  A
C361       Br376   1.929       .  S
C362        C365   1.489       .  S
C362        C363   1.409       .  A
C363        C364   1.407       .  A
C363       Br371   1.930       .  S
C364       Br375   1.932       .  S
C365        C366   1.412       .  A
C365        C370   1.404       .  A
C366        C367   1.413       .  A
C366       Br377   1.928       .  S
C367        C368   1.411       .  A
C367       Br373   1.927       .  S
C368        C369   1.426       .  A
C369        C370   1.406       .  A
C369       Br378   1.940       .  S
C370       Br374   1.935       .  S
C379        C380   1.419       .  A
C379        C384   1.418       .  A
C380        C381   1.413       .  A
C380       Br392   1.930       .  S
C381        C382   1.409       .  A
C381       Br396   1.929       .  S
C382        C385   1.485       .  S
C382        C383   1.403       .  A
C383        C384   1.403       .  A
C383       Br391   1.937       .  S
C384       Br395   1.920       .  S
C385        C386   1.402       .  A
C385        C390   1.409       .  A
C386        C387   1.405       .  A
C386       Br397   1.938       .  S
C387        C388   1.431       .  A
C387       Br393   1.941       .  S
C388        C389   1.416       .  A
C389        C390   1.412       .  A
C389       Br398   1.928       .  S
C390       Br394   1.930       .  S
C399        C400   1.408       .  A
C399        C404   1.418       .  A
C400        C401   1.412       .  A
C400       Br412   1.926       .  S
C401        C402   1.414       .  A
C401       Br416   1.930       .  S
C402        C405   1.497       .  S
C402        C403   1.408       .  A
C403        C404   1.410       .  A
C403       Br411   1.932       .  S
C404       Br415   1.924       .  S
C405        C406   1.407       .  A
C405        C410   1.415       .  A
C406        C407   1.407       .  A
C406       Br417   1.937       .  S
C407        C408   1.424       .  A
C407       Br413   1.937       .  S
C408        C409   1.411       .  A
C409        C410   1.416       .  A
C409       Br418   1.929       .  S
C410       Br414   1.929       .  S
C419        C420   1.417       .  A
C419        C424   1.412       .  A
C420        C421   1.411       .  A
C420       Br432   1.932       .  S
C421        C422   1.409       .  A
C421       Br436   1.931       .  S
C422        C425   1.487       .  S
C422        C423   1.408       .  A
C423        C424   1.406       .  A
C423       Br431   1.932       .  S
C424       Br435   1.924       .  S
C425        C426   1.404       .  A
C425        C430   1.411       .  A
C426        C427   1.405       .  A
C426       Br437   1.936       .  S
C427        C428   1.427       .  A
C427       Br433   1.940       .  S
C428        C429   1.410       .  A
C429        C430   1.412       .  A
C429       Br438   1.927       .  S
C430       Br434   1.928       .  S
C439        C440   1.418       .  A
C439        C444   1.409       .  A
C440        C441   1.406       .  A
C440       Br452   1.934       .  S
C441        C442   1.409       .  A
C441       Br456   1.934       .  S
C442        C445   1.497       .  S
C442        C443   1.415       .  A
C443        C444   1.415       .  A
C443       Br451   1.929       .  S
C444       Br455   1.927       .  S
C445        C446   1.413       .  A
C445        C450   1.413       .  A
C446        C447   1.412       .  A
C446       Br457   1.932       .  S
C447        C448   1.416       .  A
C447       Br453   1.933       .  S
C448        C449   1.410       .  A
C449        C450   1.410       .  A
C449       Br458   1.930       .  S
C450       Br454   1.931       .  S
C459        C460   1.407       .  A
C459        C464   1.410       .  A
C460        C461   1.409       .  A
C460       Br472   1.928       .  S
C461        C462   1.412       .  A
C461       Br476   1.929       .  S
C462        C465   1.489       .  S
C462        C463   1.411       .  A
C463        C464   1.406       .  A
C463       Br471   1.931       .  S
C464       Br475   1.930       .  S
C465        C466   1.407       .  A
C465        C470   1.414       .  A
C466        C467   1.406       .  A
C466       Br477   1.932       .  S
C467        C468   1.412       .  A
C467       Br473   1.920       .  S
C468        C469   1.408       .  A
C469        C470   1.411       .  A
C469       Br478   1.927       .  S
C470       Br474   1.931       .  S
C479        C480   1.412       .  A
C479        C484   1.414       .  A
C480        C481   1.415       .  A
C480       Br492   1.929       .  S
C481        C482   1.414       .  A
C481       Br496   1.925       .  S
C482        C485   1.500       .  S
C482        C483   1.409       .  A
C483        C484   1.410       .  A
C483       Br491   1.933       .  S
C484       Br495   1.920       .  S
C485        C486   1.413       .  A
C485        C490   1.409       .  A
C486        C487   1.414       .  A
C486       Br497   1.929       .  S
C487        C488   1.415       .  A
C487       Br493   1.930       .  S
C488        C489   1.418       .  A
C489        C490   1.412       .  A
C489       Br498   1.926       .  S
C490       Br494   1.931       .  S
C499        C500   1.429       .  A
C499        C504   1.430       .  A
C500        C501   1.408       .  A
C500       Br512   1.931       .  S
C501        C502   1.400       .  A
C501       Br516   1.928       .  S
C502        C505   1.485       .  S
C502        C503   1.399       .  A
C503        C504   1.412       .  A
C503       Br511   1.931       .  S
C504       Br515   1.934       .  S
C505        C506   1.408       .  A
C505        C510   1.409       .  A
C506        C507   1.404       .  A
C506       Br517   1.925       .  S
C507        C508   1.411       .  A
C507       Br513   1.934       .  S
C508        C509   1.408       .  A
C509        C510   1.409       .  A
C509       Br518   1.926       .  S
C510       Br514   1.925       .  S
C519        C520   1.419       .  A
C519        C524   1.413       .  A
C520        C521   1.412       .  A
C520       Br532   1.932       .  S
C521        C522   1.409       .  A
C521       Br536   1.931       .  S
C522        C525   1.491       .  S
C522        C523   1.408       .  A
C523        C524   1.408       .  A
C523       Br531   1.934       .  S
C524       Br535   1.916       .  S
C525        C526   1.414       .  A
C525        C530   1.411       .  A
C526        C527   1.410       .  A
C526       Br537   1.930       .  S
C527        C528   1.406       .  A
C527       Br533   1.926       .  S
C528        C529   1.409       .  A
C529        C530   1.407       .  A
C529       Br538   1.925       .  S
C530       Br534   1.929       .  S
C539        C540   1.407       .  A
C539        C544   1.407       .  A
C540        C541   1.414       .  A
C540       Br552   1.926       .  S
C541        C542   1.415       .  A
C541       Br556   1.925       .  S
C542        C545   1.497       .  S
C542        C543   1.411       .  A
C543        C544   1.406       .  A
C543       Br551   1.929       .  S
C544       Br555   1.921       .  S
C545        C546   1.407       .  A
C545        C550   1.407       .  A
C546        C547   1.415       .  A
C546       Br557   1.930       .  S
C547        C548   1.420       .  A
C547       Br553   1.920   1_556  S
C548        C549   1.422       .  A
C549        C550   1.411       .  A
C549       Br558   1.933       .  S
C550       Br554   1.932       .  S
C559        C560   1.412       .  A
C559        C564   1.414       .  A
C560        C561   1.408       .  A
C560       Br572   1.927       .  S
C561        C562   1.408       .  A
C561       Br576   1.924       .  S
C562        C565   1.481       .  S
C562        C563   1.405       .  A
C563        C564   1.403       .  A
C563       Br571   1.932       .  S
C564       Br575   1.929       .  S
C565        C566   1.405       .  A
C565        C570   1.410       .  A
C566        C567   1.402       .  A
C566       Br577   1.932       .  S
C567        C568   1.414       .  A
C567       Br573   1.931       .  S
C568        C569   1.409       .  A
C569        C570   1.408       .  A
C569       Br578   1.931       .  S
C570       Br574   1.924       .  S
C579        C580   1.414       .  A
C579        C584   1.409       .  A
C580        C581   1.412       .  A
C580       Br592   1.920       .  S
C581        C582   1.411       .  A
C581       Br596   1.933       .  S
C582        C585   1.491       .  S
C582        C583   1.410       .  A
C583        C584   1.407       .  A
C583       Br591   1.933       .  S
C584       Br595   1.922       .  S
C585        C586   1.415       .  A
C585        C590   1.410       .  A
C586        C587   1.409       .  A
C586       Br597   1.929       .  S
C587        C588   1.405       .  A
C587       Br593   1.929       .  S
C588        C589   1.411       .  A
C589        C590   1.405       .  A
C589       Br598   1.927       .  S
C590       Br594   1.931       .  S
C599        C600   1.414       .  A
C599        C604   1.409       .  A
C600        C601   1.416       .  A
C600       Br612   1.929       .  S
C601        C602   1.412       .  A
C601       Br616   1.925       .  S
C602        C605   1.503       .  S
C602        C603   1.412       .  A
C603        C604   1.413       .  A
C603       Br611   1.927       .  S
C604       Br615   1.927       .  S
C605        C606   1.408       .  A
C605        C610   1.412       .  A
C606        C607   1.411       .  A
C606       Br617   1.930       .  S
C607        C608   1.417       .  A
C607       Br613   1.932       .  S
C608        C609   1.419       .  A
C609        C610   1.419       .  A
C609       Br618   1.926       .  S
C610       Br614   1.928       .  S
C619        C620   1.409       .  A
C619        C624   1.416       .  A
C620        C621   1.406       .  A
C620       Br632   1.931       .  S
C621        C622   1.409       .  A
C621       Br636   1.930       .  S
C622        C625   1.486       .  S
C622        C623   1.408       .  A
C623        C624   1.410       .  A
C623       Br631   1.930       .  S
C624       Br635   1.929       .  S
C625        C626   1.406       .  A
C625        C630   1.408       .  A
C626        C627   1.405       .  A
C626       Br637   1.931       .  S
C627        C628   1.414       .  A
C627       Br633   1.928       .  S
C628        C629   1.413       .  A
C629        C630   1.411       .  A
C629       Br638   1.925       .  S
C630       Br634   1.921       .  S
C639        C640   1.411       .  A
C639        C644   1.406       .  A
C640        C641   1.403       .  A
C640       Br652   1.928       .  S
C641        C642   1.408       .  A
C641       Br656   1.930       .  S
C642        C645   1.483       .  S
C642        C643   1.411       .  A
C643        C644   1.409       .  A
C643       Br651   1.928       .  S
C644       Br655   1.927       .  S
C645        C646   1.403       .  A
C645        C650   1.403       .  A
C646        C647   1.412       .  A
C646       Br657   1.933       .  S
C647        C648   1.426       .  A
C647       Br653   1.923       .  S
C648        C649   1.417       .  A
C649        C650   1.403       .  A
C649       Br658   1.933       .  S
C650       Br654   1.923       .  S
C659        C660   1.415       .  A
C659        C664   1.419       .  A
C660        C661   1.412       .  A
C660       Br672   1.931       .  S
C661        C662   1.410       .  A
C661       Br676   1.921       .  S
C662        C665   1.499       .  S
C662        C663   1.409       .  A
C663        C664   1.413       .  A
C663       Br671   1.931       .  S
C664       Br675   1.930       .  S
C665        C666   1.409       .  A
C665        C670   1.412       .  A
C666        C667   1.410       .  A
C666       Br677   1.931       .  S
C667        C668   1.414       .  A
C667       Br673   1.921       .  S
C668        C669   1.409       .  A
C669        C670   1.412       .  A
C669       Br678   1.931       .  S
C670       Br674   1.915   1_556  S
C679        C680   1.415       .  A
C679        C684   1.412       .  A
C680        C681   1.402       .  A
C680       Br692   1.928       .  S
C681        C682   1.403       .  A
C681       Br696   1.930       .  S
C682        C685   1.484       .  S
C682        C683   1.410       .  A
C683        C684   1.412       .  A
C683       Br691   1.929       .  S
C684       Br695   1.926       .  S
C685        C686   1.411       .  A
C685        C690   1.408       .  A
C686        C687   1.408       .  A
C686       Br697   1.927       .  S
C687        C688   1.407       .  A
C687       Br693   1.929       .  S
C688        C689   1.413       .  A
C689        C690   1.405       .  A
C689       Br698   1.932       .  S
C690       Br694   1.932       .  S
C699        C700   1.410       .  A
C699        C704   1.411       .  A
C700        C701   1.411       .  A
C700       Br712   1.928       .  S
C701        C702   1.408       .  A
C701       Br716   1.930       .  S
C702        C705   1.489       .  S
C702        C703   1.410       .  A
C703        C704   1.409       .  A
C703       Br711   1.926       .  S
C704       Br715   1.932       .  S
C705        C706   1.405       .  A
C705        C710   1.409       .  A
C706        C707   1.400       .  A
C706       Br717   1.920       .  S
C707        C708   1.414       .  A
C707       Br713   1.931       .  S
C708        C709   1.421       .  A
C709        C710   1.414       .  A
C709       Br718   1.929       .  S
C710       Br714   1.930       .  S
C719        C720   1.411       .  A
C719        C724   1.408       .  A
C720        C721   1.410       .  A
C720       Br732   1.927       .  S
C721        C722   1.409       .  A
C721       Br736   1.928       .  S
C722        C725   1.491       .  S
C722        C723   1.411       .  A
C723        C724   1.409       .  A
C723       Br731   1.927       .  S
C724       Br735   1.927       .  S
C725        C726   1.407       .  A
C725        C730   1.408       .  A
C726        C727   1.408       .  A
C726       Br737   1.930       .  S
C727        C728   1.414       .  A
C727       Br733   1.928       .  S
C728        C729   1.416       .  A
C729        C730   1.411       .  A
C729       Br738   1.932       .  S
C730       Br734   1.923       .  S
C739        C740   1.414       .  A
C739        C744   1.408       .  A
C740        C741   1.408       .  A
C740       Br752   1.925       .  S
C741        C742   1.407       .  A
C741       Br756   1.930       .  S
C742        C745   1.491       .  S
C742        C743   1.411       .  A
C743        C744   1.410       .  A
C743       Br751   1.923       .  S
C744       Br755   1.929       .  S
C745        C746   1.408       .  A
C745        C750   1.402       .  A
C746        C747   1.418       .  A
C746       Br757   1.929       .  S
C747        C748   1.423       .  A
C747       Br753   1.924       .  S
C748        C749   1.424       .  A
C749        C750   1.405       .  A
C749       Br758   1.926       .  S
C750       Br754   1.938       .  S
C759        C760   1.409       .  A
C759        C764   1.421       .  A
C760        C761   1.414       .  A
C760       Br772   1.926       .  S
C761        C762   1.413       .  A
C761       Br776   1.924       .  S
C762        C765   1.491       .  S
C762        C763   1.406       .  A
C763        C764   1.403       .  A
C763       Br771   1.936       .  S
C764       Br775   1.933       .  S
C765        C766   1.406       .  A
C765        C770   1.409       .  A
C766        C767   1.408       .  A
C766       Br777   1.932       .  S
C767        C768   1.423       .  A
C767       Br773   1.930       .  S
C768        C769   1.420       .  A
C769        C770   1.409       .  A
C769       Br778   1.934       .  S
C770       Br774   1.929       .  S
C779        C780   1.408       .  A
C779        C784   1.411       .  A
C780        C781   1.409       .  A
C780       Br792   1.928       .  S
C781        C782   1.412       .  A
C781       Br796   1.929       .  S
C782        C785   1.489       .  S
C782        C783   1.408       .  A
C783        C784   1.410       .  A
C783       Br791   1.929       .  S
C784       Br795   1.922       .  S
C785        C786   1.409       .  A
C785        C790   1.410       .  A
C786        C787   1.409       .  A
C786       Br797   1.927       .  S
C787        C788   1.412       .  A
C787       Br793   1.925       .  S
C788        C789   1.409       .  A
C789        C790   1.408       .  A
C789       Br798   1.931       .  S
C790       Br794   1.929       .  S
