geometry optimzed in LAMMPS
_audit_creation_date              2020-11-30 
_audit_creation_method            'lammps2cif' 
_symmetry_space_group_name_H-M    'P1' 
_symmetry_Int_Tables_number       1 
_symmetry_cell_setting            triclinic 
loop_ 
_symmetry_equiv_pos_as_xyz 
  x,y,z 
_cell_length_a                    41.77264976 
_cell_length_b                    41.54823890839483 
_cell_length_c                    41.231723778486554 
_cell_angle_alpha                 89.81964988174761 
_cell_angle_beta                  91.48006381553998 
_cell_angle_gamma                 89.5318620050429 
loop_ 
_atom_site_label 
_atom_site_type_symbol 
_atom_site_fract_x 
_atom_site_fract_y 
_atom_site_fract_z 
_atom_site_charge 
O1          O  0.07726853  0.20711831  0.03483462    -0.79800
O2          O  0.07646434  0.27597601  0.46718814    -0.79800
O3          O  0.11070828  0.28121701  0.07211492    -0.79900
O4          O  0.13083041  0.22270858  0.43318817    -0.79800
O5          O  0.07103366  0.28803904  0.03629865    -0.79900
O6          O  0.08956747  0.20435125  0.45991127    -0.79800
O7          O  0.11803787  0.26962888  0.43543048    -0.79800
O8          O  0.11666817  0.21852719  0.06972284    -0.79900
C9          C  0.08824693  0.20889812  0.06388965     1.09900
C10         C  0.08852425  0.27673452  0.43931296     1.09700
C11         C  0.08233839  0.29017174  0.06551656     1.09900
C12         C  0.10553156  0.20602056  0.43369543     1.09800
O13         O  0.13803164  0.17764521  0.48252877    -0.79800
O14         O  0.12693588  0.32386086  0.03367251    -0.79900
O15         O  0.17815459  0.22209682  0.04205461    -0.79800
O16         O  0.17663825  0.28798816  0.46446199    -0.79800
O17         O  0.13218740  0.31742129  0.46875936    -0.79900
O18         O  0.14118044  0.18581794  0.02858703    -0.79800
O19         O  0.17733653  0.20891891  0.46655524    -0.79800
O20         O  0.16983950  0.29445211  0.04639434    -0.79900
Co21       Co  0.11014525  0.21248869  0.00212625     1.51500
Co22       Co  0.10227819  0.29733544  0.50116896     1.51700
Co23       Co  0.14411664  0.25430193  0.05367599     1.51600
Co24       Co  0.14956912  0.24987360  0.46781700     1.51500
O25         O  0.12625976  0.25614258  0.00749322    -1.41800
C26         C  0.16520753  0.18046919  0.46936787     1.09800
C27         C  0.15422041  0.32129665  0.04743557     1.09900
C28         C  0.16881962  0.19276846  0.04038276     1.09800
C29         C  0.16190233  0.31501339  0.46217443     1.09800
O30         O  0.37583291  0.22229283  0.06850231    -0.79800
O31         O  0.38467617  0.28241570  0.43211250    -0.79800
O32         O  0.43477369  0.21919671  0.47242299    -0.79900
O33         O  0.41877768  0.28975790  0.03996103    -0.79800
O34         O  0.39774041  0.22136491  0.43329329    -0.79900
O35         O  0.37542603  0.28393172  0.06936246    -0.79800
O36         O  0.42473839  0.28621017  0.46694408    -0.79800
O37         O  0.42020400  0.22389040  0.04144125    -0.79900
C38         C  0.40626788  0.21896589  0.06771870     1.09900
C39         C  0.41377985  0.28779735  0.43770608     1.09700
C40         C  0.42676356  0.21611367  0.44244072     1.09900
C41         C  0.40500543  0.28999666  0.06783949     1.09800
O42         O  0.31914044  0.29331614  0.02883947    -0.79800
O43         O  0.33520139  0.20775914  0.46005853    -0.79900
O44         O  0.36032619  0.18556989  0.02783667    -0.79800
O45         O  0.36005894  0.31568807  0.46940432    -0.79800
O46         O  0.32501338  0.27596593  0.46249134    -0.79900
O47         O  0.31897855  0.21962094  0.02620867    -0.79800
O48         O  0.36168803  0.32323837  0.03019560    -0.79800
O49         O  0.37948277  0.18054301  0.46770372    -0.79900
Co50       Co  0.34765573  0.25447450  0.04335562     1.51500
Co51       Co  0.36050363  0.24698472  0.45156317     1.51700
Co52       Co  0.39594823  0.20785811  0.00313922     1.51600
Co53       Co  0.39365145  0.29796160  0.50160905     1.51500
O54         O  0.37246887  0.25281180  0.99944793    -1.41800
C55         C  0.33182568  0.32154362  0.03195800     1.09800
C56         C  0.35118955  0.18194265  0.45670691     1.09900
C57         C  0.33006911  0.19085738  0.02941178     1.09800
C58         C  0.33220312  0.30554335  0.46053500     1.09800
O59         O  0.21073285  0.03832148  0.17369640    -0.79800
O60         O  0.27812623  0.43630296  0.16800859    -0.79800
O61         O  0.17814980  0.47960523  0.13544291    -0.79900
O62         O  0.31440509  0.03214690  0.13857993    -0.79800
O63         O  0.21288607  0.45986027  0.17132476    -0.79900
O64         O  0.27929242  0.03856841  0.17702735    -0.79800
O65         O  0.30868960  0.46698154  0.13601489    -0.79800
O66         O  0.17705579  0.03905342  0.13207253    -0.79900
C67         C  0.18248580  0.04234533  0.16239115     1.09900
C68         C  0.30553485  0.44368001  0.15702989     1.09700
C69         C  0.18366917  0.46430787  0.16113520     1.09900
C70         C  0.30786570  0.04076507  0.16721426     1.09800
O71         O  0.27877928  0.07460634  0.11894527    -0.79800
O72         O  0.22746969  0.44009109  0.11942800    -0.79900
O73         O  0.20992374  0.04053963  0.07080375    -0.79800
O74         O  0.27960656  0.47280845  0.07038767    -0.79800
O75         O  0.26484543  0.43849677  0.10769911    -0.79900
O76         O  0.21641749  0.07429014  0.11229303    -0.79800
O77         O  0.28402182  0.04418059  0.07605661    -0.79800
O78         O  0.20509522  0.46749720  0.07832975    -0.79900
Co79       Co  0.24581149  0.05255178  0.14486798     1.51500
Co80       Co  0.25468585  0.46976809  0.14665504     1.51700
Co81       Co  0.19740106  0.00651159  0.10254271     1.51600
Co82       Co  0.29197036  0.00453893  0.10503917     1.51500
O83         O  0.24433469  0.00863661  0.12173278    -1.41800
C84         C  0.28459097  0.07231265  0.08918570     1.09800
C85         C  0.20793724  0.44118813  0.09497107     1.09900
C86         C  0.20961309  0.06910146  0.08238092     1.09800
C87         C  0.27572194  0.44360107  0.07920248     1.09800
O88         O  0.18582152  0.02912301  0.36174207    -0.79800
O89         O  0.32669995  0.47600208  0.37635567    -0.79800
O90         O  0.29343513  0.03283341  0.32935916    -0.79900
O91         O  0.22353734  0.45467073  0.31791888    -0.79800
O92         O  0.32282300  0.01187537  0.37093169    -0.79900
O93         O  0.19103220  0.46522875  0.35843777    -0.79800
O94         O  0.30079743  0.45287339  0.33366205    -0.79800
O95         O  0.21588990  0.04300641  0.32087031    -0.79900
C96         C  0.18858074  0.04236984  0.33418383     1.09900
C97         C  0.32665215  0.45803937  0.35037922     1.09700
C98         C  0.32082722  0.02769540  0.34334968     1.09900
C99         C  0.19549268  0.45570105  0.32953918     1.09800
O100        O  0.22062816  0.45829557  0.42040779    -0.79800
O101        O  0.29832671  0.04338485  0.40841314    -0.79900
O102        O  0.23107397  0.06494332  0.38402897    -0.79800
O103        O  0.27892370  0.42030534  0.37232100    -0.79800
O104        O  0.29380940  0.44730999  0.41641108    -0.79900
O105        O  0.21612692  0.03195469  0.42287553    -0.79800
O106        O  0.23129854  0.42688271  0.37875171    -0.79800
O107        O  0.27836341  0.07262915  0.36779109    -0.79900
Co108      Co  0.20568867  0.99605947  0.39115524     1.51500
Co109      Co  0.29031682  0.99526530  0.40543110     1.51700
Co110      Co  0.25240794  0.03653082  0.35219715     1.51600
Co111      Co  0.25725688  0.45679691  0.35215771     1.51500
O112        O  0.25123015  0.99618598  0.37490275    -1.41800
C113        C  0.22106328  0.43017776  0.40734664     1.09800
C114        C  0.29596717  0.07022462  0.39317668     1.09900
C115        C  0.21850896  0.06079842  0.41143838     1.09800
C116        C  0.29116821  0.42093888  0.40061426     1.09800
O117        O  0.03383963  0.17207676  0.20768470    -0.79800
O118        O  0.46940460  0.17657747  0.29305147    -0.79800
O119        O  0.47422516  0.13824341  0.18438527    -0.79900
O120        O  0.03319719  0.13265937  0.31652717    -0.79800
O121        O  0.46246568  0.18029054  0.21713174    -0.79900
O122        O  0.04555565  0.17518753  0.28746660    -0.79800
O123        O  0.47373201  0.13201160  0.32219382    -0.79800
O124        O  0.01776302  0.13010015  0.17873289    -0.79900
C125        C  0.03075731  0.15780215  0.18014326     1.09900
C126        C  0.46848995  0.16219517  0.32077926     1.09700
C127        C  0.46202046  0.16688128  0.18867701     1.09900
C128        C  0.04667034  0.15952137  0.31438734     1.09800
O129        O  0.06717115  0.11901714  0.26956955    -0.79800
O130        O  0.42214068  0.13109054  0.22186958    -0.79900
O131        O  0.03568637  0.07940490  0.20781054    -0.79800
O132        O  0.46330647  0.07605699  0.28369488    -0.79800
O133        O  0.43165805  0.11935982  0.28474259    -0.79900
O134        O  0.06501309  0.12162085  0.22279200    -0.79800
O135        O  0.03762659  0.07674441  0.28204075    -0.79800
O136        O  0.44812718  0.08783810  0.20762047    -0.79900
Co137      Co  0.03445629  0.14742503  0.24914930     1.51500
Co138      Co  0.45094885  0.15132527  0.25448543     1.51700
Co139      Co  0.99453231  0.10570987  0.21266494     1.51600
Co140      Co  0.50146054  0.10373541  0.29536606     1.51500
O141        O  0.49412689  0.12650449  0.25155532    -1.41800
C142        C  0.06543383  0.09043599  0.28012965     1.09800
C143        C  0.42245606  0.10421085  0.20828535     1.09900
C144        C  0.06300626  0.09382953  0.20966330     1.09800
C145        C  0.43551499  0.08895449  0.28796920     1.09800
O146        O  0.01617721  0.36926320  0.18341842    -0.79800
O147        O  0.48269424  0.36397920  0.32708720    -0.79800
O148        O  0.04908968  0.33356989  0.29710103    -0.79900
O149        O  0.46222249  0.32132878  0.22136640    -0.79800
O150        O  0.04301204  0.37546176  0.33170579    -0.79900
O151        O  0.46928393  0.36413825  0.19098338    -0.79800
O152        O  0.47495663  0.32223439  0.29472909    -0.79800
O153        O  0.03230807  0.32572060  0.21150849    -0.79900
C154        C  0.02756658  0.34066200  0.18421623     1.09900
C155        C  0.47631742  0.33440652  0.32327526     1.09700
C156        C  0.05338757  0.34709057  0.32585502     1.09900
C157        C  0.46019888  0.33545280  0.19335742     1.09800
O158        O  0.45317281  0.42183731  0.21557668    -0.79800
O159        O  0.04874163  0.41668287  0.28330381    -0.79900
O160        O  0.06511146  0.37965989  0.22147156    -0.79800
O161        O  0.43821871  0.38098232  0.29417135    -0.79800
O162        O  0.47202460  0.42188900  0.29162357    -0.79900
O163        O  0.03521563  0.42335657  0.20964491    -0.79800
O164        O  0.42781562  0.37779826  0.23104978    -0.79800
O165        O  0.07649931  0.37457396  0.26817623    -0.79900
Co166      Co  0.99439177  0.39760950  0.21580145     1.51500
Co167      Co  0.01502768  0.38679600  0.29782811     1.51700
Co168      Co  0.03836787  0.35275075  0.25099176     1.51600
Co169      Co  0.45479401  0.35052889  0.26047363     1.51500
O170        O  0.99962941  0.37576688  0.25629688    -1.41800
C171        C  0.42740550  0.40491901  0.21704591     1.09800
C172        C  0.07601346  0.40275485  0.27983016     1.09900
C173        C  0.06273983  0.40817611  0.20981849     1.09800
C174        C  0.44482142  0.41044997  0.29937634     1.09800
C175        C  0.35843169  0.44683437  0.33851673    -0.05000
C176        C  0.36943758  0.45808342  0.30862642    -0.02100
C177        C  0.40129345  0.45188778  0.29936728     0.02800
C178        C  0.42006689  0.42950575  0.31659428    -0.05000
C179        C  0.41048071  0.42049882  0.34784858    -0.02100
C180        C  0.38014941  0.42978377  0.35918948     0.02800
C181        C  0.34798395  0.47823671  0.28990688     0.37500
C182        C  0.43377694  0.40743432  0.37069866     0.37500
C183        C  0.37232277  0.42293060  0.39258614     0.35900
C184        C  0.41890505  0.47480315  0.28099561     0.35900
N185        N  0.36738318  0.41762757  0.41956159    -0.38900
N186        N  0.43588441  0.49348143  0.26994652    -0.38900
N187        N  0.45141374  0.39934496  0.39117972    -0.38400
N188        N  0.32782637  0.49441902  0.27906662    -0.38400
C189        C  0.10736164  0.41739258  0.28920721    -0.05000
C190        C  0.10889353  0.44936484  0.29988401    -0.02100
C191        C  0.13656781  0.45965429  0.31633016     0.02800
C192        C  0.16640732  0.44364399  0.31196515    -0.05000
C193        C  0.16580379  0.41260359  0.29824373    -0.02100
C194        C  0.13593376  0.39810154  0.29142264     0.02800
C195        C  0.08088740  0.47026411  0.29916673     0.37500
C196        C  0.19496153  0.39365375  0.29546866     0.37500
C197        C  0.13459279  0.36311477  0.29225436     0.35900
C198        C  0.13110262  0.47848922  0.34505698     0.35900
N199        N  0.13342450  0.33528935  0.29369657    -0.38900
N200        N  0.12129044  0.98871316  0.37396271    -0.38900
N201        N  0.21768349  0.37791924  0.29256633    -0.38400
N202        N  0.05851828  0.48685081  0.29897449    -0.38400
C203        C  0.35093480  0.04106713  0.32785231    -0.05000
C204        C  0.38272616  0.03216728  0.33828477    -0.02100
C205        C  0.41011211  0.04501678  0.32286374     0.02800
C206        C  0.40681812  0.07047013  0.30001030    -0.05000
C207        C  0.37517212  0.08205337  0.29294071    -0.02100
C208        C  0.34799591  0.06556237  0.30374663     0.02800
C209        C  0.38814098  0.01139222  0.36618289     0.37500
C210        C  0.36956819  0.11313845  0.27765080     0.37500
C211        C  0.31699760  0.07516124  0.28985356     0.35900
C212        C  0.44189593  0.03430647  0.33334795     0.35900
N213        N  0.29256896  0.08278913  0.27822543    -0.38900
N214        N  0.46716667  0.02552529  0.34168619    -0.38900
N215        N  0.36450265  0.13874256  0.26760831    -0.38400
N216        N  0.39330223  0.99549586  0.38884357    -0.38400
C217        C  0.15813437  0.05699817  0.31975088    -0.05000
C218        C  0.15662141  0.07356959  0.28995746    -0.02100
C219        C  0.12705042  0.08721929  0.27906988     0.02800
C220        C  0.09717933  0.07625605  0.29180814    -0.05000
C221        C  0.09915827  0.06007774  0.32180926    -0.02100
C222        C  0.12928653  0.05573116  0.33755204     0.02800
C223        C  0.18569904  0.08127306  0.27309672     0.37500
C224        C  0.07042924  0.05238232  0.33913134     0.37500
C225        C  0.13034758  0.05630679  0.37279233     0.35900
C226        C  0.12926916  0.11769000  0.26210608     0.35900
N227        N  0.13110399  0.05703388  0.40086693    -0.38900
N228        N  0.13214248  0.14308914  0.25100749    -0.38900
N229        N  0.04776529  0.04580004  0.35317867    -0.38400
N230        N  0.20860016  0.08798434  0.25947312    -0.38400
C231        C  0.33531177  0.43081040  0.17249245    -0.05000
C232        C  0.34658683  0.39924794  0.16941854    -0.02100
C233        C  0.37475034  0.38985770  0.18697878     0.02800
C234        C  0.39583987  0.41373892  0.20060421    -0.05000
C235        C  0.38487041  0.44556632  0.20055093    -0.02100
C236        C  0.35285887  0.45237141  0.19142970     0.02800
C237        C  0.32932598  0.37659487  0.14903379     0.37500
C238        C  0.40808536  0.47047771  0.20415933     0.37500
C239        C  0.33374451  0.47617429  0.20722516     0.35900
C240        C  0.37947390  0.35585462  0.19290196     0.35900
N241        N  0.31264405  0.99212462  0.21608887    -0.38900
N242        N  0.38101410  0.32866519  0.19873568    -0.38900
N243        N  0.42761559  0.98829833  0.20653698    -0.38400
N244        N  0.31623795  0.35835680  0.13229415    -0.38400
C245        C  0.09394974  0.42239053  0.19748645    -0.05000
C246        C  0.12473834  0.40704642  0.20303640    -0.02100
C247        C  0.15392006  0.42201206  0.19433030     0.02800
C248        C  0.15344267  0.45074997  0.17621527    -0.05000
C249        C  0.12239356  0.46433787  0.16804594    -0.02100
C250        C  0.09351444  0.45062519  0.17874315     0.02800
C251        C  0.12752679  0.37398062  0.21391574     0.37500
C252        C  0.11871652  0.49256344  0.14764761     0.37500
C253        C  0.06301319  0.46396735  0.16724345     0.35900
C254        C  0.18439267  0.40646904  0.20228253     0.35900
N255        N  0.03871954  0.47424117  0.15756839    -0.38900
N256        N  0.20860795  0.39395699  0.20881607    -0.38900
N257        N  0.11407764  0.51457123  0.13104126    -0.38400
N258        N  0.13154938  0.34744458  0.22146174    -0.38400
C259        C  0.39173806  0.09148039  0.19377443    -0.05000
C260        C  0.39040235  0.05982567  0.18200916    -0.02100
C261        C  0.36374129  0.04216552  0.19000187     0.02800
C262        C  0.33373364  0.05728372  0.18643277    -0.05000
C263        C  0.33269922  0.09092661  0.19147969    -0.02100
C264        C  0.36187767  0.10821788  0.19551662     0.02800
C265        C  0.41753282  0.04374661  0.16801983     0.37500
C266        C  0.30219218  0.10669579  0.19578782     0.37500
C267        C  0.36105833  0.14302217  0.19676730     0.35900
C268        C  0.36955533  0.03118463  0.22257653     0.35900
N269        N  0.36049527  0.17087093  0.19726889    -0.38900
N270        N  0.37832908  0.52512372  0.24917990    -0.38900
N271        N  0.27784716  0.11885676  0.20091277    -0.38400
N272        N  0.43937615  0.52644781  0.14764991    -0.38400
C273        C  0.09428727  0.07977052  0.19835964    -0.05000
C274        C  0.11790128  0.10062012  0.18548338    -0.02100
C275        C  0.14853920  0.08890257  0.17778400     0.02800
C276        C  0.15643616  0.05639528  0.18227411    -0.05000
C277        C  0.13574631  0.03722871  0.20046310    -0.02100
C278        C  0.10409344  0.04803765  0.20673181     0.02800
C279        C  0.11241821  0.13493096  0.18250117     0.37500
C280        C  0.14879738  0.00935472  0.21732107     0.37500
C281        C  0.08248891  0.02719469  0.22360551     0.35900
C282        C  0.17311241  0.11086240  0.16751669     0.35900
N283        N  0.06503324  0.01057654  0.23695043    -0.38900
N284        N  0.19266050  0.12874084  0.16002234    -0.38900
N285        N  0.15984100  0.49492823  0.23338042    -0.38400
N286        N  0.10996702  0.16263337  0.18219935    -0.38400
C287        C  0.31478333  0.35379977  0.03888238    -0.05000
C288        C  0.33090137  0.38395153  0.03454418    -0.02100
C289        C  0.31817247  0.41334373  0.04690126     0.02800
C290        C  0.28682955  0.41476229  0.05887757    -0.05000
C291        C  0.26842164  0.38643980  0.05481036    -0.02100
C292        C  0.28345233  0.35584326  0.05046878     0.02800
C293        C  0.36009848  0.38562845  0.01633303     0.37500
C294        C  0.23784867  0.39050974  0.03849092     0.37500
C295        C  0.26585235  0.32645412  0.05463113     0.35900
C296        C  0.33735997  0.44226712  0.04672398     0.35900
N297        N  0.25336208  0.30178298  0.05631186    -0.38900
N298        N  0.35261891  0.46538714  0.04647328    -0.38900
N299        N  0.21426846  0.39334529  0.02339694    -0.38400
N300        N  0.38312719  0.38725743  0.00141334    -0.38400
C301        C  0.29265647  0.10378163  0.07188687    -0.05000
C302        C  0.28701885  0.13458944  0.08671084    -0.02100
C303        C  0.29767431  0.16359773  0.07230928     0.02800
C304        C  0.30950109  0.16342078  0.04078191    -0.05000
C305        C  0.30778809  0.13406030  0.02373914    -0.02100
C306        C  0.30526175  0.10442459  0.04049857     0.02800
C307        C  0.26967351  0.13771367  0.11636281     0.37500
C308        C  0.29198511  0.13493448  0.99239533     0.37500
C309        C  0.31335280  0.07485102  0.02407488     0.35900
C310        C  0.29613077  0.19380352  0.08981999     0.35900
N311        N  0.31978087  0.05100349  0.01126317    -0.38900
N312        N  0.29482002  0.21796793  0.10363871    -0.38900
N313        N  0.28045983  0.13617541  0.46692179    -0.38400
N314        N  0.25554063  0.14172497  0.13971225    -0.38400
C315        C  0.29957542  0.38947645  0.41560537    -0.05000
C316        C  0.28903772  0.38169415  0.44697592    -0.02100
C317        C  0.29239425  0.34992393  0.45852637     0.02800
C318        C  0.31143875  0.32802492  0.44201198    -0.05000
C319        C  0.31894105  0.33428296  0.40971805    -0.02100
C320        C  0.31296353  0.36482412  0.39627315     0.02800
C321        C  0.27373475  0.40582870  0.46664930     0.37500
C322        C  0.32967752  0.30828919  0.38939680     0.37500
C323        C  0.32078895  0.37043605  0.36259472     0.35900
C324        C  0.26844876  0.33657632  0.47904112     0.35900
N325        N  0.32663420  0.37434865  0.33559136    -0.38900
N326        N  0.24337015  0.32829534  0.98902376    -0.38900
N327        N  0.33679893  0.28776802  0.37210343    -0.38400
N328        N  0.26208282  0.42606305  0.48166038    -0.38400
C329        C  0.31436030  0.09879385  0.40557792    -0.05000
C330        C  0.33738828  0.09506047  0.43125955    -0.02100
C331        C  0.34914514  0.12216461  0.44789023     0.02800
C332        C  0.33949110  0.15365556  0.43801879    -0.05000
C333        C  0.32066604  0.15749640  0.40934784    -0.02100
C334        C  0.30897958  0.13019110  0.39266069     0.02800
C335        C  0.35028961  0.06360271  0.44021095     0.37500
C336        C  0.31346667  0.18944590  0.39675457     0.37500
C337        C  0.29398651  0.13478998  0.36087344     0.35900
C338        C  0.36775167  0.11698928  0.47783847     0.35900
N339        N  0.28308232  0.13880337  0.33510353    -0.38900
N340        N  0.38153004  0.11534022  0.00360105    -0.38900
N341        N  0.30754234  0.21489699  0.38664265    -0.38400
N342        N  0.36096409  0.03870340  0.44745940    -0.38400
C343        C  0.46536897  0.31701579  0.35268010    -0.05000
C344        C  0.47472794  0.32822769  0.38418001    -0.02100
C345        C  0.45749619  0.31938689  0.41173555     0.02800
C346        C  0.43302704  0.29648245  0.40905903    -0.05000
C347        C  0.42532157  0.28329029  0.37786079    -0.02100
C348        C  0.44072601  0.29417332  0.34995544     0.02800
C349        C  0.50000732  0.35160443  0.38853480     0.37500
C350        C  0.40231278  0.25753793  0.37362954     0.37500
C351        C  0.42974104  0.28271166  0.31830214     0.35900
C352        C  0.46425115  0.33498533  0.44261042     0.35900
N353        N  0.42094439  0.27338891  0.29322464    -0.38900
N354        N  0.46943574  0.34778171  0.46703683    -0.38900
N355        N  0.38463468  0.23668043  0.36871157    -0.38400
N356        N  0.51816755  0.37213633  0.39268667    -0.38400
C357        C  0.44594882  0.32218918  0.16158716    -0.05000
C358        C  0.43010736  0.29250894  0.15930072    -0.02100
C359        C  0.41423304  0.28369782  0.12968324     0.02800
C360        C  0.42084569  0.29983549  0.09972554    -0.05000
C361        C  0.43595465  0.32975649  0.10216162    -0.02100
C362        C  0.44378453  0.34247906  0.13312931     0.02800
C363        C  0.42624365  0.27310717  0.18822694     0.37500
C364        C  0.43811350  0.35001768  0.07352171     0.37500
C365        C  0.44189583  0.37732443  0.13587526     0.35900
C366        C  0.38882463  0.26028858  0.13156682     0.35900
N367        N  0.43944268  0.40503154  0.13777596    -0.38900
N368        N  0.36823100  0.24210473  0.13440234    -0.38900
N369        N  0.43970285  0.36634040  0.05083402    -0.38400
N370        N  0.42312764  0.25754391  0.21124340    -0.38400
C371        C  0.45925096  0.17790255  0.35272701    -0.05000
C372        C  0.44318885  0.15897916  0.37605370    -0.02100
C373        C  0.44021705  0.16929343  0.40834544     0.02800
C374        C  0.44783506  0.20066031  0.41758744    -0.05000
C375        C  0.46575216  0.21899648  0.39591595    -0.02100
C376        C  0.47052345  0.20836473  0.36323136     0.02800
C377        C  0.42675723  0.12971314  0.36713854     0.37500
C378        C  0.48383780  0.24512764  0.40991737     0.37500
C379        C  0.48571874  0.22900036  0.34018590     0.35900
C380        C  0.43396833  0.14597539  0.43336682     0.35900
N381        N  0.49695201  0.24546207  0.32099099    -0.38900
N382        N  0.43135653  0.12649320  0.45314795    -0.38900
N383        N  0.49941080  0.26441896  0.42275433    -0.38400
N384        N  0.41234451  0.10663649  0.36186544    -0.38400
C385        C  0.42391016  0.20526454  0.09661822    -0.05000
C386        C  0.41292169  0.17636439  0.10959884    -0.02100
C387        C  0.42805916  0.16321971  0.13731393     0.02800
C388        C  0.44823728  0.18212512  0.15797370    -0.05000
C389        C  0.45957762  0.21125595  0.14477572    -0.02100
C390        C  0.45029690  0.22047530  0.11246401     0.02800
C391        C  0.38925272  0.15719320  0.09202713     0.37500
C392        C  0.48168500  0.23092705  0.16339976     0.37500
C393        C  0.46872431  0.24422401  0.09541325     0.35900
C394        C  0.42852547  0.12861986  0.13841891     0.35900
N395        N  0.48403242  0.26278189  0.08184582    -0.38900
N396        N  0.42987946  0.10115345  0.13466522    -0.38900
N397        N  0.49864105  0.24740427  0.17836484    -0.38400
N398        N  0.37115767  0.14039127  0.07900725    -0.38400
C399        C  0.20824693  0.40038914  0.42344649    -0.05000
C400        C  0.18649000  0.40304292  0.44894252    -0.02100
C401        C  0.16960341  0.37577068  0.45935899     0.02800
C402        C  0.17823894  0.34426816  0.44926389    -0.05000
C403        C  0.20113523  0.34120203  0.42495863    -0.02100
C404        C  0.21430658  0.36889303  0.41069148     0.02800
C405        C  0.17959803  0.43401824  0.46355374     0.37500
C406        C  0.20910673  0.30962678  0.41220402     0.37500
C407        C  0.23233266  0.36385816  0.38149382     0.35900
C408        C  0.14084577  0.38167301  0.47709298     0.35900
N409        N  0.24582651  0.35867101  0.35791795    -0.38900
N410        N  0.11720193  0.38870815  0.48915158    -0.38900
N411        N  0.21553548  0.28454930  0.40193801    -0.38400
N412        N  0.17402708  0.45845390  0.47569583    -0.38400
C413        C  0.18066680  0.14987494  0.45632217    -0.05000
C414        C  0.20008683  0.15082737  0.42883157    -0.02100
C415        C  0.20846336  0.12207490  0.41259839     0.02800
C416        C  0.20497031  0.09109363  0.42749913    -0.05000
C417        C  0.18544062  0.08997131  0.45502238    -0.02100
C418        C  0.17212577  0.11869992  0.46815755     0.02800
C419        C  0.20998196  0.18136790  0.41532471     0.37500
C420        C  0.17698926  0.05918671  0.46897325     0.37500
C421        C  0.14891157  0.11543224  0.49352236     0.35900
C422        C  0.21419471  0.12491968  0.37813557     0.35900
N423        N  0.12993693  0.11261498  0.51329133    -0.38900
N424        N  0.21686269  0.12708875  0.35033755    -0.38900
N425        N  0.16993264  0.03489606  0.48044254    -0.38400
N426        N  0.21865114  0.20533987  0.40437960    -0.38400
C427        C  0.19136025  0.40993257  0.08757275    -0.05000
C428        C  0.16102691  0.40947817  0.07212346    -0.02100
C429        C  0.14655005  0.37966749  0.06515466     0.02800
C430        C  0.16517838  0.35065096  0.06598970    -0.05000
C431        C  0.19185068  0.35025474  0.08734271    -0.02100
C432        C  0.20386965  0.37962125  0.09971961     0.02800
C433        C  0.14357940  0.43925261  0.06572796     0.37500
C434        C  0.20376655  0.31985049  0.10045249     0.37500
C435        C  0.22884353  0.37757164  0.12473825     0.35900
C436        C  0.11181786  0.37874846  0.06323418     0.35900
N437        N  0.24824756  0.37518009  0.14514450    -0.38900
N438        N  0.08410917  0.37869295  0.06207634    -0.38900
N439        N  0.21265495  0.29576519  0.11181095    -0.38400
N440        N  0.12968025  0.46300715  0.06056221    -0.38400
C441        C  0.18677902  0.16481805  0.05455395    -0.05000
C442        C  0.17041182  0.14777973  0.07829551    -0.02100
C443        C  0.17211427  0.11429982  0.07998645     0.02800
C444        C  0.19655269  0.09762518  0.06440506    -0.05000
C445        C  0.21443177  0.11425022  0.04119245    -0.02100
C446        C  0.20948819  0.14806136  0.03628371     0.02800
C447        C  0.15373485  0.16487776  0.10297059     0.37500
C448        C  0.23266402  0.09510439  0.01912082     0.37500
C449        C  0.22727010  0.16667431  0.01341555     0.35900
C450        C  0.14679001  0.09670095  0.09534858     0.35900
N451        N  0.24015065  0.18394253  0.99605146    -0.38900
N452        N  0.12561609  0.08303508  0.10637823    -0.38900
N453        N  0.24548102  0.07833981  0.00115142    -0.38400
N454        N  0.14209102  0.17776884  0.12441534    -0.38400
C455        C  0.07173789  0.29350152  0.41253434    -0.05000
C456        C  0.06705399  0.27783273  0.38296253    -0.02100
C457        C  0.06648269  0.29498348  0.35374406     0.02800
C458        C  0.06655822  0.32887758  0.35429305    -0.05000
C459        C  0.07154814  0.34485138  0.38461265    -0.02100
C460        C  0.07129352  0.32712467  0.41356929     0.02800
C461        C  0.05313025  0.24657449  0.38347098     0.37500
C462        C  0.07746379  0.37926143  0.38668109     0.37500
C463        C  0.06695865  0.34307287  0.44440522     0.35900
C464        C  0.06588139  0.27740972  0.32344075     0.35900
N465        N  0.06183031  0.35498797  0.46908549    -0.39500
N466        N  0.06569441  0.26390461  0.29892964    -0.38900
N467        N  0.08198136  0.40662659  0.38888534    -0.38400
N468        N  0.03918053  0.22277998  0.38376218    -0.38400
C469        C  0.03811900  0.32687548  0.15263798    -0.05000
C470        C  0.02671254  0.33836511  0.12136265    -0.02100
C471        C  0.03717177  0.32306202  0.09253936     0.02800
C472        C  0.06577003  0.30489390  0.09407139    -0.05000
C473        C  0.08252858  0.30487115  0.12452265    -0.02100
C474        C  0.06608642  0.30809344  0.15318809     0.02800
C475        C  0.01371677  0.37060907  0.11759446     0.37500
C476        C  0.11613075  0.31303872  0.12704064     0.37500
C477        C  0.08256594  0.29919362  0.18335854     0.35900
C478        C  0.02243242  0.33105315  0.06133963     0.35900
N479        N  0.09565138  0.29215055  0.20744706    -0.38900
N480        N  0.01090494  0.33758775  0.03632954    -0.38900
N481        N  0.14252922  0.32005226  0.13164139    -0.38400
N482        N  0.49648629  0.40547201  0.09715933    -0.38400
C483        C  0.09576745  0.18878873  0.40330131    -0.05000
C484        C  0.10807793  0.19801496  0.37259766    -0.02100
C485        C  0.09235367  0.18852022  0.34346635     0.02800
C486        C  0.06519637  0.16871176  0.34451020    -0.05000
C487        C  0.05757332  0.15414453  0.37511138    -0.02100
C488        C  0.07276692  0.16428682  0.40408253     0.02800
C489        C  0.13592000  0.21848273  0.37035633     0.37500
C490        C  0.03366537  0.12903955  0.37799773     0.37500
C491        C  0.06376296  0.14975406  0.43467331     0.35900
C492        C  0.10479925  0.19888243  0.31262690     0.35900
N493        N  0.05606461  0.13783790  0.45859997    -0.38900
N494        N  0.11529997  0.20751575  0.28845301    -0.38900
N495        N  0.51742613  0.10680920  0.37972963    -0.38400
N496        N  0.15815822  0.23479767  0.36856946    -0.38400
C497        C  0.07004012  0.19749570  0.09225402    -0.05000
C498        C  0.07495622  0.21234358  0.12299261    -0.02100
C499        C  0.05857960  0.20187828  0.15018707     0.02800
C500        C  0.04157109  0.17270166  0.14910535    -0.05000
C501        C  0.03843879  0.15622347  0.11869754    -0.02100
C502        C  0.05147037  0.16938264  0.09031779     0.02800
C503        C  0.10200377  0.23316951  0.12933690     0.37500
C504        C  0.02428858  0.12444295  0.11620024     0.37500
C505        C  0.04938779  0.15146031  0.06010065     0.35900
C506        C  0.06344699  0.21895919  0.18060377     0.35900
N507        N  0.04800331  0.13689703  0.03622059    -0.38900
N508        N  0.06704322  0.23117677  0.20558424    -0.38900
N509        N  0.01379111  0.09882370  0.11387938    -0.38400
N510        N  0.12538738  0.24661809  0.13594613    -0.38400
O511        O  0.07903175  0.20654974  0.53642636    -0.79800
O512        O  0.07633342  0.28085781  0.96413165    -0.79800
O513        O  0.11178974  0.28175724  0.57192877    -0.79900
O514        O  0.13103949  0.22426477  0.93216450    -0.79800
O515        O  0.07184011  0.28652678  0.53627246    -0.79900
O516        O  0.08953915  0.20518513  0.95821033    -0.79800
O517        O  0.11904457  0.27182157  0.93408928    -0.79800
O518        O  0.11863383  0.21895839  0.57087992    -0.79900
C519        C  0.09034390  0.20872911  0.56528910     1.09900
C520        C  0.08962706  0.28008886  0.93647524     1.09700
C521        C  0.08330944  0.29011716  0.56505282     1.09900
C522        C  0.10614747  0.20688828  0.93240053     1.09800
O523        O  0.13765344  0.17887046  0.98156775    -0.79800
O524        O  0.12656732  0.32392610  0.53209774    -0.79900
O525        O  0.17967059  0.22323111  0.54224917    -0.79800
O526        O  0.17664735  0.28995439  0.96433914    -0.79800
O527        O  0.13241478  0.31947912  0.96979909    -0.79900
O528        O  0.14320627  0.18607881  0.52970514    -0.79800
O529        O  0.17703660  0.21026807  0.96574750    -0.79800
O530        O  0.17004894  0.29542794  0.54491770    -0.79900
Co531      Co  0.11122880  0.21164497  0.50335217     1.51500
Co532      Co  0.10217585  0.29905194  0.00114532     1.51700
Co533      Co  0.14534374  0.25492490  0.55388182     1.51600
Co534      Co  0.14942302  0.25149867  0.96718599     1.51500
O535        O  0.12707378  0.25529355  0.50820684    -1.41800
C536        C  0.16485968  0.18178089  0.96846551     1.09800
C537        C  0.15407985  0.32213219  0.54527572     1.09900
C538        C  0.17084657  0.19375116  0.54099355     1.09800
C539        C  0.16195705  0.31712687  0.96285892     1.09800
O540        O  0.38040823  0.21944843  0.56834660    -0.79800
O541        O  0.38134792  0.28343161  0.93100287    -0.79800
O542        O  0.43054990  0.22075277  0.97293260    -0.79900
O543        O  0.42262736  0.28723577  0.54053469    -0.79800
O544        O  0.39384985  0.22228291  0.93339744    -0.79900
O545        O  0.37927637  0.28082326  0.56981810    -0.79800
O546        O  0.42117248  0.28752350  0.96611944    -0.79800
O547        O  0.42471246  0.22145391  0.54110468    -0.79900
C548        C  0.41088689  0.21652854  0.56743672     1.09900
C549        C  0.41045751  0.28881916  0.93678091     1.09700
C550        C  0.42271025  0.21695708  0.94302201     1.09900
C551        C  0.40873382  0.28709513  0.56827833     1.09800
O552        O  0.32296484  0.29092910  0.53043185    -0.79800
O553        O  0.33114598  0.20897055  0.95937021    -0.79900
O554        O  0.36482737  0.18306747  0.52749976    -0.79800
O555        O  0.35663512  0.31763493  0.96755755    -0.79800
O556        O  0.32118275  0.27825545  0.96041286    -0.79900
O557        O  0.32330326  0.21697584  0.52630330    -0.79800
O558        O  0.36535727  0.32117042  0.53179715    -0.79800
O559        O  0.37543941  0.18201599  0.96832275    -0.79900
Co560      Co  0.35176680  0.25171305  0.54384072     1.51500
Co561      Co  0.35666464  0.24842473  0.95076430     1.51700
Co562      Co  0.40027683  0.20580536  0.50279037     1.51600
Co563      Co  0.38995360  0.29990397  0.00042996     1.51500
O564        O  0.37659360  0.25076573  0.50001223    -1.41800
C565        C  0.33549443  0.31925453  0.53399576     1.09800
C566        C  0.34719787  0.18291116  0.95717081     1.09900
C567        C  0.33454443  0.18825901  0.52928588     1.09800
C568        C  0.32875126  0.30780749  0.95824599     1.09800
O569        O  0.21191961  0.03901227  0.67374393    -0.79800
O570        O  0.27601433  0.43616872  0.66674262    -0.79800
O571        O  0.17655106  0.47830108  0.63423917    -0.79900
O572        O  0.31526008  0.02977090  0.63672133    -0.79800
O573        O  0.21177745  0.45932355  0.67009894    -0.79900
O574        O  0.28114117  0.03771636  0.67581776    -0.79800
O575        O  0.30671672  0.46719246  0.63522731    -0.79800
O576        O  0.17769183  0.04030622  0.63246913    -0.79900
C577        C  0.18356634  0.04352848  0.66275841     1.09900
C578        C  0.30342384  0.44382702  0.65609985     1.09700
C579        C  0.18255715  0.46301719  0.65986988     1.09900
C580        C  0.30960701  0.03909386  0.66533257     1.09800
O581        O  0.28005076  0.07265087  0.61756583    -0.79800
O582        O  0.22642973  0.44115800  0.61672859    -0.79900
O583        O  0.20986833  0.04152887  0.57066139    -0.79800
O584        O  0.27891369  0.47090005  0.56961453    -0.79800
O585        O  0.26333989  0.43743654  0.60721820    -0.79900
O586        O  0.21766613  0.07466154  0.61240708    -0.79800
O587        O  0.28425763  0.04210794  0.57462549    -0.79800
O588        O  0.20369507  0.46965526  0.57650276    -0.79900
Co589      Co  0.24704842  0.05200778  0.64425209     1.51500
Co590      Co  0.25306669  0.46985602  0.64545609     1.51700
Co591      Co  0.19679160  0.00744393  0.60225750     1.51600
Co592      Co  0.29131064  0.00251206  0.60388257     1.51500
O593        O  0.24394984  0.00808129  0.62108910    -1.41800
C594        C  0.28567035  0.07018860  0.58781035     1.09800
C595        C  0.20706000  0.44282989  0.59214290     1.09900
C596        C  0.21038650  0.06999093  0.58253089     1.09800
C597        C  0.27553287  0.44179097  0.57914082     1.09800
O598        O  0.18230860  0.02696329  0.85967929    -0.79800
O599        O  0.32069485  0.47863585  0.87253036    -0.79800
O600        O  0.28975739  0.03514245  0.82504041    -0.79900
O601        O  0.21372567  0.45921807  0.81795278    -0.79800
O602        O  0.32024971  0.01796899  0.86648988    -0.79900
O603        O  0.18364723  0.46981423  0.86030647    -0.79800
O604        O  0.29333189  0.45591831  0.83042962    -0.79800
O605        O  0.21304885  0.04476536  0.82055911    -0.79900
C606        C  0.18553279  0.04220718  0.83320602     1.09900
C607        C  0.31966056  0.46066020  0.84664341     1.09700
C608        C  0.31760267  0.03125502  0.83860839     1.09900
C609        C  0.18618793  0.46071321  0.83099502     1.09800
O610        O  0.21591640  0.46307953  0.92062073    -0.79800
O611        O  0.29391665  0.03926056  0.91716476    -0.79900
O612        O  0.22758869  0.06601538  0.88089476    -0.79800
O613        O  0.27178795  0.42285836  0.86910061    -0.79800
O614        O  0.28929583  0.44943321  0.91254366    -0.79900
O615        O  0.21338040  0.03286868  0.92026864    -0.79800
O616        O  0.22501991  0.43166198  0.87836254    -0.79800
O617        O  0.27716913  0.06819823  0.87398730    -0.79900
Co618      Co  0.20250925  0.99525518  0.89025519     1.51500
Co619      Co  0.28786880  0.99639348  0.89435253     1.51700
Co620      Co  0.24982330  0.03662773  0.85083176     1.51600
Co621      Co  0.25009099  0.46036178  0.85009833     1.51500
O622        O  0.24639385  0.99612947  0.87173840    -1.41800
C623        C  0.21607925  0.43486004  0.90739352     1.09800
C624        C  0.29263635  0.06619298  0.90100982     1.09900
C625        C  0.21540236  0.06176397  0.90855378     1.09800
C626        C  0.28532677  0.42310988  0.89690283     1.09800
O627        O  0.03348679  0.17307829  0.70814409    -0.79800
O628        O  0.46561491  0.17686084  0.79526947    -0.79800
O629        O  0.47272899  0.14036517  0.68849240    -0.79900
O630        O  0.03100442  0.13371022  0.81719377    -0.79800
O631        O  0.46371253  0.18261548  0.71947453    -0.79900
O632        O  0.04467375  0.17577329  0.78793983    -0.79800
O633        O  0.46993390  0.13143212  0.82421941    -0.79800
O634        O  0.01844975  0.13078761  0.67918655    -0.79900
C635        C  0.03127349  0.15852980  0.68072325     1.09900
C636        C  0.46453553  0.16183196  0.82276600     1.09700
C637        C  0.46425356  0.16941701  0.69111379     1.09900
C638        C  0.04546812  0.16013837  0.81488946     1.09800
O639        O  0.06518995  0.11946127  0.77023627    -0.79800
O640        O  0.42642776  0.12658399  0.72118461    -0.79900
O641        O  0.03669551  0.08056171  0.70810241    -0.79800
O642        O  0.46031808  0.07740222  0.78091061    -0.79800
O643        O  0.42988593  0.12080632  0.78452616    -0.79900
O644        O  0.06533406  0.12312294  0.72347216    -0.79800
O645        O  0.03516843  0.07748334  0.78250426    -0.79800
O646        O  0.45315335  0.08174840  0.70944877    -0.79900
Co647      Co  0.03352366  0.14832052  0.74944814     1.51500
Co648      Co  0.45064715  0.15171695  0.75551439     1.51700
Co649      Co  0.99485443  0.10615814  0.71247757     1.51600
Co650      Co  0.49831630  0.10233742  0.79822061     1.51500
O651        O  0.49508984  0.12954337  0.75661000    -1.41800
C652        C  0.06303157  0.09093204  0.78059891     1.09800
C653        C  0.42705763  0.09863091  0.70862847     1.09900
C654        C  0.06388678  0.09531069  0.71019478     1.09800
C655        C  0.43287779  0.09049540  0.78586451     1.09800
O656        O  0.01484067  0.37306453  0.67897308    -0.79800
O657        O  0.47764470  0.36568419  0.82651381    -0.79800
O658        O  0.04617769  0.32324105  0.78660235    -0.79900
O659        O  0.45957235  0.32399686  0.72079853    -0.79800
O660        O  0.03768174  0.36499362  0.81878120    -0.79900
O661        O  0.46742357  0.36604760  0.68899398    -0.79800
O662        O  0.47119775  0.32413079  0.79384482    -0.79800
O663        O  0.03072771  0.32943741  0.70656197    -0.79900
C664        C  0.02749139  0.34504300  0.67954861     1.09900
C665        C  0.47239713  0.33595802  0.82251888     1.09700
C666        C  0.04934917  0.33711661  0.81433765     1.09900
C667        C  0.45767333  0.33758478  0.69252966     1.09800
O668        O  0.45152482  0.42173994  0.71058999    -0.79800
O669        O  0.03608850  0.42245896  0.78398020    -0.79900
O670        O  0.06632520  0.37587058  0.72230733    -0.79800
O671        O  0.43323016  0.38245918  0.79322208    -0.79800
O672        O  0.46656793  0.42416163  0.79275732    -0.79900
O673        O  0.03621338  0.41885279  0.71016226    -0.79800
O674        O  0.42478651  0.37992600  0.73002931    -0.79800
O675        O  0.06625042  0.38138095  0.76923374    -0.79900
Co676      Co  0.99357327  0.39517097  0.71554955     1.51500
Co677      Co  0.00240708  0.39287605  0.80109263     1.51700
Co678      Co  0.03474110  0.35211764  0.74921406     1.51600
Co679      Co  0.45073839  0.35250056  0.75968690     1.51500
O680        O  0.99421241  0.37273092  0.75699518    -1.41800
C681        C  0.42530425  0.40586695  0.71399340     1.09800
C682        C  0.06403922  0.40951587  0.78072157     1.09900
C683        C  0.06389914  0.40415569  0.71010616     1.09800
C684        C  0.43910619  0.41207978  0.79872904     1.09800
C685        C  0.35113268  0.44852338  0.83493594    -0.05000
C686        C  0.36306873  0.45984376  0.80548083    -0.02100
C687        C  0.39518653  0.45334593  0.79715974     0.02800
C688        C  0.41315288  0.43046870  0.81469776    -0.05000
C689        C  0.40229119  0.42077915  0.84522059    -0.02100
C690        C  0.37215013  0.43106224  0.85603869     0.02800
C691        C  0.34242175  0.48069917  0.78662301     0.37500
C692        C  0.42388156  0.40455657  0.86774466     0.37500
C693        C  0.36424674  0.42535474  0.88961459     0.35900
C694        C  0.41357149  0.47598430  0.77923608     0.35900
N695        N  0.35968405  0.42111058  0.91685258    -0.38900
N696        N  0.43114252  0.49433148  0.76858961    -0.38900
N697        N  0.44018388  0.39330982  0.88781392    -0.38400
N698        N  0.32279316  0.49747985  0.77570895    -0.38400
C699        C  0.09549224  0.42426978  0.79148395    -0.05000
C700        C  0.09686157  0.45430702  0.80695444    -0.02100
C701        C  0.12570100  0.46403857  0.82237193     0.02800
C702        C  0.15566290  0.44938988  0.81467888    -0.05000
C703        C  0.15463071  0.41997494  0.79784078    -0.02100
C704        C  0.12468987  0.40566243  0.79073063     0.02800
C705        C  0.06786479  0.47290537  0.81184856     0.37500
C706        C  0.18378726  0.40164127  0.79248676     0.37500
C707        C  0.12428480  0.37065844  0.78947620     0.35900
C708        C  0.12245753  0.48231245  0.85187812     0.35900
N709        N  0.12400996  0.34277178  0.78962319    -0.38900
N710        N  0.11990271  0.99100911  0.87296300    -0.38900
N711        N  0.20648602  0.38637093  0.78783296    -0.38400
N712        N  0.04466303  0.48754718  0.81594585    -0.38400
C713        C  0.34754619  0.04417849  0.82332957    -0.05000
C714        C  0.37906923  0.03412278  0.83375977    -0.02100
C715        C  0.40671088  0.04671228  0.81901426     0.02800
C716        C  0.40385567  0.07250590  0.79672364    -0.05000
C717        C  0.37254703  0.08525310  0.78985079    -0.02100
C718        C  0.34497584  0.06935937  0.80025178     0.02800
C719        C  0.38409264  0.01273400  0.86130366     0.37500
C720        C  0.36782427  0.11725922  0.77633361     0.37500
C721        C  0.31390032  0.08090892  0.78831664     0.35900
C722        C  0.43831887  0.03581390  0.83006227     0.35900
N723        N  0.28923893  0.09008498  0.77855209    -0.38900
N724        N  0.46345988  0.02704494  0.83886222    -0.38900
N725        N  0.36346108  0.14355233  0.76795320    -0.38400
N726        N  0.38913714  0.99657254  0.88379117    -0.38400
C727        C  0.15533972  0.05708751  0.81916437    -0.05000
C728        C  0.15349034  0.07224181  0.78869212    -0.02100
C729        C  0.12423983  0.08663335  0.77848663     0.02800
C730        C  0.09450162  0.07651313  0.79208305    -0.05000
C731        C  0.09670855  0.06167538  0.82273320    -0.02100
C732        C  0.12706509  0.05724351  0.83786446     0.02800
C733        C  0.18203990  0.07784295  0.77014249     0.37500
C734        C  0.06819577  0.05579609  0.84112564     0.37500
C735        C  0.12921543  0.05879114  0.87303017     0.35900
C736        C  0.12724101  0.11761032  0.76273053     0.35900
N737        N  0.13078277  0.06027725  0.90106534    -0.38900
N738        N  0.13093889  0.14325007  0.75251865    -0.38900
N739        N  0.04565119  0.05079733  0.85597160    -0.38400
N740        N  0.20446875  0.08282985  0.75508657    -0.38400
C741        C  0.33300447  0.43097469  0.67141418    -0.05000
C742        C  0.34395657  0.39931987  0.66852051    -0.02100
C743        C  0.37268710  0.39025648  0.68504389     0.02800
C744        C  0.39400876  0.41444629  0.69760812    -0.05000
C745        C  0.38318465  0.44627085  0.69759792    -0.02100
C746        C  0.35109344  0.45293912  0.68923982     0.02800
C747        C  0.32583820  0.37624315  0.64943971     0.37500
C748        C  0.40626010  0.47124582  0.70190504     0.37500
C749        C  0.33269278  0.47778482  0.70416011     0.35900
C750        C  0.37801945  0.35626182  0.69077191     0.35900
N751        N  0.31160187  0.99157650  0.71484693    -0.38900
N752        N  0.38005050  0.32903399  0.69631503    -0.38900
N753        N  0.42599686  0.98654837  0.70580025    -0.38400
N754        N  0.31212579  0.35747533  0.63386706    -0.38400
C755        C  0.09466127  0.41937567  0.69787907    -0.05000
C756        C  0.12560118  0.40404357  0.70182955    -0.02100
C757        C  0.15430456  0.41963627  0.69275389     0.02800
C758        C  0.15300101  0.44874625  0.67524424    -0.05000
C759        C  0.12181540  0.46266525  0.66877307    -0.02100
C760        C  0.09365753  0.44913399  0.68137976     0.02800
C761        C  0.12914026  0.37098518  0.71252423     0.37500
C762        C  0.11746177  0.49123898  0.64867092     0.37500
C763        C  0.06325373  0.46563815  0.67563822     0.35900
C764        C  0.18516781  0.40459472  0.70013600     0.35900
N765        N  0.03908159  0.47892877  0.67105572    -0.38900
N766        N  0.20964440  0.39255298  0.70646707    -0.38900
N767        N  0.11283249  0.51366751  0.63247819    -0.38400
N768        N  0.13431144  0.34461089  0.72008464    -0.38400
C769        C  0.39599427  0.08713114  0.69311655    -0.05000
C770        C  0.39357971  0.05602123  0.68044326    -0.02100
C771        C  0.36608882  0.03899041  0.68777906     0.02800
C772        C  0.33659948  0.05503629  0.68374029    -0.05000
C773        C  0.33653210  0.08842346  0.69021431    -0.02100
C774        C  0.36633065  0.10468296  0.69504294     0.02800
C775        C  0.42009716  0.04021165  0.66524859     0.37500
C776        C  0.30645919  0.10457058  0.69596729     0.37500
C777        C  0.36610268  0.13945444  0.69724553     0.35900
C778        C  0.37020181  0.02939398  0.72103788     0.35900
N779        N  0.36563328  0.16727657  0.69845625    -0.38900
N780        N  0.37495439  0.52603716  0.74504659    -0.38900
N781        N  0.28245699  0.11682210  0.70233593    -0.38400
N782        N  0.44125708  0.52802842  0.64803006    -0.38400
C783        C  0.09551829  0.08141389  0.69914637    -0.05000
C784        C  0.11942546  0.10222784  0.68663781    -0.02100
C785        C  0.15017194  0.09040166  0.67910386     0.02800
C786        C  0.15776242  0.05774037  0.68304989    -0.05000
C787        C  0.13682680  0.03858792  0.70095322    -0.02100
C788        C  0.10519612  0.04955387  0.70725397     0.02800
C789        C  0.11413828  0.13654524  0.68370458     0.37500
C790        C  0.14956648  0.01024280  0.71723302     0.37500
C791        C  0.08347794  0.02872387  0.72397407     0.35900
C792        C  0.17519501  0.11224892  0.66954740     0.35900
N793        N  0.06592133  0.01216509  0.73726390    -0.38900
N794        N  0.19531262  0.12976866  0.66264160    -0.38900
N795        N  0.15973816  0.48918381  0.73539488    -0.38400
N796        N  0.11211612  0.16427012  0.68327338    -0.38400
C797        C  0.31815713  0.35142619  0.54155170    -0.05000
C798        C  0.33385006  0.38190464  0.53773089    -0.02100
C799        C  0.32033085  0.41115783  0.54985154     0.02800
C800        C  0.28837713  0.41237094  0.56038946    -0.05000
C801        C  0.27087002  0.38340679  0.55655672    -0.02100
C802        C  0.28681682  0.35306864  0.55322668     0.02800
C803        C  0.36338782  0.38413039  0.52016610     0.37500
C804        C  0.24074578  0.38627603  0.53913918     0.37500
C805        C  0.27034361  0.32338926  0.55936412     0.35900
C806        C  0.33948063  0.44008514  0.55112729     0.35900
N807        N  0.25893213  0.29844388  0.56322261    -0.38900
N808        N  0.35484793  0.46313388  0.55219289    -0.38900
N809        N  0.21770832  0.38814306  0.52303078    -0.38400
N810        N  0.38660402  0.38623443  0.50561582    -0.38400
C811        C  0.29487208  0.10148024  0.57089936    -0.05000
C812        C  0.29208496  0.13200321  0.58710837    -0.02100
C813        C  0.30454677  0.16051130  0.57346730     0.02800
C814        C  0.31414941  0.16095714  0.54111995    -0.05000
C815        C  0.30967135  0.13244643  0.52303419    -0.02100
C816        C  0.30579037  0.10241692  0.53882606     0.02800
C817        C  0.27518330  0.13554151  0.61706053     0.37500
C818        C  0.29491763  0.13527201  0.49124839     0.37500
C819        C  0.31075029  0.07298259  0.52089112     0.35900
C820        C  0.30717800  0.18957331  0.59277682     0.35900
N821        N  0.31439820  0.04931818  0.50668412    -0.38900
N822        N  0.30924407  0.21270576  0.60821332    -0.38900
N823        N  0.27676919  0.13427137  0.96854655    -0.38400
N824        N  0.26115985  0.13961576  0.64050107    -0.38400
C825        C  0.29399642  0.39152450  0.91186652    -0.05000
C826        C  0.28520948  0.38434367  0.94396183    -0.02100
C827        C  0.28914824  0.35281513  0.95601186     0.02800
C828        C  0.30818231  0.33077413  0.93959182    -0.05000
C829        C  0.31464580  0.33656093  0.90685180    -0.02100
C830        C  0.30698024  0.36657615  0.89264942     0.02800
C831        C  0.27101641  0.40879010  0.96412466     0.37500
C832        C  0.32616186  0.31057355  0.88697276     0.37500
C833        C  0.31327072  0.37166079  0.85855016     0.35900
C834        C  0.26471292  0.33960620  0.97594954     0.35900
N835        N  0.31801303  0.37532685  0.83125700    -0.38900
N836        N  0.24777356  0.32482686  0.49281424    -0.38900
N837        N  0.33396812  0.28993635  0.87013131    -0.38400
N838        N  0.26025418  0.42910300  0.97969355    -0.38400
C839        C  0.30998316  0.09613632  0.91205272    -0.05000
C840        C  0.33468780  0.09417955  0.93588345    -0.02100
C841        C  0.34658624  0.12235028  0.95065119     0.02800
C842        C  0.33567201  0.15337589  0.94004415    -0.05000
C843        C  0.31561245  0.15543818  0.91211218    -0.02100
C844        C  0.30367361  0.12701275  0.89753523     0.02800
C845        C  0.34987639  0.06348014  0.94340728     0.37500
C846        C  0.30758781  0.18666300  0.89804464     0.37500
C847        C  0.28821254  0.13017049  0.86575837     0.35900
C848        C  0.36636474  0.11861437  0.97994131     0.35900
N849        N  0.27729180  0.13348154  0.83990935    -0.38900
N850        N  0.38214125  0.11262659  0.50183107    -0.38900
N851        N  0.30113017  0.21154181  0.88677661    -0.38400
N852        N  0.36246332  0.03903891  0.94886286    -0.38400
C853        C  0.46245851  0.31784964  0.85189595    -0.05000
C854        C  0.47187861  0.32899567  0.88340947    -0.02100
C855        C  0.45471286  0.31996929  0.91098751     0.02800
C856        C  0.43004766  0.29724160  0.90822753    -0.05000
C857        C  0.42261620  0.28384975  0.87706844    -0.02100
C858        C  0.43827240  0.29452827  0.84921302     0.02800
C859        C  0.49678797  0.35285721  0.88771136     0.37500
C860        C  0.39939154  0.25829030  0.87284700     0.37500
C861        C  0.42798206  0.28244662  0.81759281     0.35900
C862        C  0.46159608  0.33533780  0.94194672     0.35900
N863        N  0.41982559  0.27266518  0.79248290    -0.38900
N864        N  0.46685971  0.34789821  0.96648843    -0.38900
N865        N  0.38142993  0.23766198  0.86805401    -0.38400
N866        N  0.51481122  0.37349392  0.89192946    -0.38400
C867        C  0.44470236  0.32300344  0.66134687    -0.05000
C868        C  0.43120589  0.29223228  0.65962417    -0.02100
C869        C  0.41710064  0.28171588  0.62990459     0.02800
C870        C  0.42386836  0.29761152  0.59986021    -0.05000
C871        C  0.43710414  0.32839948  0.60181088    -0.02100
C872        C  0.44245529  0.34244098  0.63246387     0.02800
C873        C  0.42778091  0.27325881  0.68894476     0.37500
C874        C  0.43987358  0.34789918  0.57273048     0.37500
C875        C  0.43881711  0.37725127  0.63404307     0.35900
C876        C  0.39297992  0.25698852  0.63180690     0.35900
N877        N  0.43533941  0.40490925  0.63478546    -0.38900
N878        N  0.37347894  0.23769986  0.63498685    -0.38900
N879        N  0.44212960  0.36368858  0.54975426    -0.38400
N880        N  0.42505397  0.25799041  0.71222644    -0.38400
C881        C  0.45522477  0.17751121  0.85452108    -0.05000
C882        C  0.43872296  0.15888749  0.87773646    -0.02100
C883        C  0.43593509  0.16944968  0.90994845     0.02800
C884        C  0.44385957  0.20083780  0.91888573    -0.05000
C885        C  0.46209851  0.21878717  0.89730611    -0.02100
C886        C  0.46704394  0.20778944  0.86490006     0.02800
C887        C  0.42285088  0.12918502  0.86898809     0.37500
C888        C  0.47999736  0.24511869  0.91112954     0.37500
C889        C  0.48295447  0.22793710  0.84196502     0.35900
C890        C  0.43110264  0.14615862  0.93531935     0.35900
N891        N  0.49470818  0.24403292  0.82280929    -0.38900
N892        N  0.43000015  0.12672082  0.95533955    -0.38900
N893        N  0.49540540  0.26463158  0.92382457    -0.38400
N894        N  0.40941043  0.10556022  0.86340711    -0.38400
C895        C  0.42877569  0.20355607  0.59644380    -0.05000
C896        C  0.41814500  0.17478836  0.60989727    -0.02100
C897        C  0.43304006  0.16279877  0.63817929     0.02800
C898        C  0.45162247  0.18325465  0.65923909    -0.05000
C899        C  0.46328451  0.21175682  0.64509622    -0.02100
C900        C  0.45467572  0.21961816  0.61225177     0.02800
C901        C  0.39531809  0.15462487  0.59228572     0.37500
C902        C  0.48452586  0.23251130  0.66343705     0.37500
C903        C  0.47305309  0.24306189  0.59477877     0.35900
C904        C  0.43567955  0.12810383  0.63924358     0.35900
N905        N  0.48831214  0.26137632  0.58084710    -0.38900
N906        N  0.43924121  0.10065266  0.63663963    -0.38900
N907        N  0.50030974  0.25042143  0.67797245    -0.38400
N908        N  0.37783796  0.13731017  0.57907868    -0.38400
C909        C  0.20458340  0.40441533  0.92356467    -0.05000
C910        C  0.18480221  0.40599605  0.95068962    -0.02100
C911        C  0.16944054  0.37803941  0.96185669     0.02800
C912        C  0.17771201  0.34690015  0.95025491    -0.05000
C913        C  0.19856680  0.34489888  0.92411119    -0.02100
C914        C  0.21001594  0.37322552  0.90946897     0.02800
C915        C  0.17827043  0.43660596  0.96624222     0.37500
C916        C  0.20597620  0.31373363  0.91003080     0.37500
C917        C  0.22524085  0.36906888  0.87847449     0.35900
C918        C  0.14236688  0.38282463  0.98232103     0.35900
N919        N  0.23650304  0.36460523  0.85353148    -0.38900
N920        N  0.11971435  0.38878732  0.99661366    -0.38900
N921        N  0.21194763  0.28900737  0.89870086    -0.38400
N922        N  0.17309558  0.46078346  0.97906639    -0.38400
C923        C  0.18005933  0.15113095  0.95510916    -0.05000
C924        C  0.19820914  0.15194635  0.92670802    -0.02100
C925        C  0.20543348  0.12309318  0.91001645     0.02800
C926        C  0.20277799  0.09216577  0.92521977    -0.05000
C927        C  0.18509375  0.09120762  0.95401881    -0.02100
C928        C  0.17199223  0.11995820  0.96733089     0.02800
C929        C  0.20748929  0.18242693  0.91266738     0.37500
C930        C  0.17796846  0.06053796  0.96895782     0.37500
C931        C  0.14888639  0.11660802  0.99278852     0.35900
C932        C  0.20873847  0.12575970  0.87514189     0.35900
N933        N  0.12986214  0.11360988  0.01245529    -0.38900
N934        N  0.20952182  0.12785084  0.84717800    -0.38900
N935        N  0.17208763  0.03629602  0.98127263    -0.38400
N936        N  0.21562742  0.20642505  0.90130795    -0.38400
C937        C  0.19077867  0.41162655  0.58395563    -0.05000
C938        C  0.16123530  0.41120543  0.56695038    -0.02100
C939        C  0.14671992  0.38141973  0.55995084     0.02800
C940        C  0.16489195  0.35214007  0.56256364    -0.05000
C941        C  0.19076494  0.35194040  0.58481996    -0.02100
C942        C  0.20236126  0.38136779  0.59727733     0.02800
C943        C  0.14421728  0.44102816  0.55953464     0.37500
C944        C  0.20234478  0.32163068  0.59848621     0.37500
C945        C  0.22625102  0.37921239  0.62335035     0.35900
C946        C  0.11203790  0.38099836  0.55677316     0.35900
N947        N  0.24490343  0.37652254  0.64441271    -0.38900
N948        N  0.08435328  0.38138315  0.55479481    -0.38900
N949        N  0.21054539  0.29760430  0.61046996    -0.38400
N950        N  0.13063496  0.46482948  0.55370072    -0.38400
C951        C  0.18942366  0.16648944  0.55547221    -0.05000
C952        C  0.17368476  0.15005645  0.58003954    -0.02100
C953        C  0.17443487  0.11653713  0.58157176     0.02800
C954        C  0.19784030  0.09912145  0.56510874    -0.05000
C955        C  0.21556204  0.11536854  0.54145945    -0.02100
C956        C  0.21126335  0.14922089  0.53666186     0.02800
C957        C  0.15826786  0.16781091  0.60519970     0.37500
C958        C  0.23265887  0.09612694  0.51860080     0.37500
C959        C  0.22899941  0.16734505  0.51333419     0.35900
C960        C  0.14878682  0.09972829  0.59720740     0.35900
N961        N  0.24200260  0.18412953  0.49560423    -0.38900
N962        N  0.12727242  0.08670827  0.60833573    -0.38900
N963        N  0.24447394  0.07975316  0.49961394    -0.38400
N964        N  0.14766936  0.18142776  0.62680560    -0.38400
C965        C  0.07400984  0.29439389  0.90680338    -0.05000
C966        C  0.06792516  0.27538282  0.87929705    -0.02100
C967        C  0.06600574  0.28878377  0.84785630     0.02800
C968        C  0.06532603  0.32224532  0.84389301    -0.05000
C969        C  0.07271208  0.34167653  0.87157737    -0.02100
C970        C  0.07493830  0.32786759  0.90286319     0.02800
C971        C  0.05432403  0.24460816  0.88432889     0.37500
C972        C  0.07872525  0.37592513  0.86844693     0.37500
C973        C  0.07409879  0.34817128  0.93129422     0.35900
C974        C  0.06511538  0.26840698  0.81953033     0.35900
N975        N  0.07155973  0.36423656  0.95395235    -0.39500
N976        N  0.06440743  0.25340626  0.79592184    -0.38900
N977        N  0.08345347  0.40326449  0.86684204    -0.38400
N978        N  0.04107638  0.22087257  0.88858768    -0.38400
C979        C  0.03884067  0.33125924  0.64871889    -0.05000
C980        C  0.02818986  0.34212378  0.61708756    -0.02100
C981        C  0.03889482  0.32565707  0.58912996     0.02800
C982        C  0.06674779  0.30643305  0.59223619    -0.05000
C983        C  0.08290841  0.30682196  0.62282353    -0.02100
C984        C  0.06584530  0.31115758  0.65064468     0.02800
C985        C  0.01409304  0.37378219  0.61221726     0.37500
C986        C  0.11638692  0.31531571  0.62594456     0.37500
C987        C  0.08092424  0.30155158  0.68130551     0.35900
C988        C  0.02496805  0.33283672  0.55735251     0.35900
N989        N  0.09274501  0.29400901  0.70586871    -0.38900
N990        N  0.01402997  0.33876662  0.53192944    -0.38900
N991        N  0.14257588  0.32274985  0.63109999    -0.38400
N992        N  0.49898099  0.39951429  0.60453588    -0.38400
C993        C  0.09778578  0.18819377  0.90239453    -0.05000
C994        C  0.10913546  0.19767728  0.87147355    -0.02100
C995        C  0.09310146  0.18749908  0.84273080     0.02800
C996        C  0.06518768  0.16872788  0.84453402    -0.05000
C997        C  0.05812138  0.15436745  0.87533303    -0.02100
C998        C  0.07559555  0.16296362  0.90360433     0.02800
C999        C  0.13564528  0.21975590  0.86870908     0.37500
C1000       C  0.03160606  0.13232770  0.87934323     0.37500
C1001       C  0.06950149  0.14664060  0.93406433     0.35900
C1002       C  0.10588132  0.19638824  0.81161951     0.35900
N1003       N  0.06443757  0.13314127  0.95793859    -0.38900
N1004       N  0.11675286  0.20414687  0.78732836    -0.38900
N1005       N  0.49413879  0.10622500  0.88733312    -0.38400
N1006       N  0.15662619  0.23760776  0.86645755    -0.38400
C1007       C  0.07251144  0.19710837  0.59361426    -0.05000
C1008       C  0.07683712  0.21239530  0.62413887    -0.02100
C1009       C  0.06032915  0.20195763  0.65122617     0.02800
C1010       C  0.04315262  0.17287244  0.64998351    -0.05000
C1011       C  0.04086680  0.15586965  0.61981318    -0.02100
C1012       C  0.05449331  0.16865497  0.59165550     0.02800
C1013       C  0.10301533  0.23435942  0.63025981     0.37500
C1014       C  0.02697340  0.12393889  0.61735515     0.37500
C1015       C  0.05346333  0.15016830  0.56173721     0.35900
C1016       C  0.06498767  0.21910914  0.68163880     0.35900
N1017       N  0.05291553  0.13514850  0.53811878    -0.38900
N1018       N  0.06844303  0.23151012  0.70655428    -0.38900
N1019       N  0.01670138  0.09823233  0.61506411    -0.38400
N1020       N  0.12568688  0.24899009  0.63675289    -0.38400
O1021       O  0.07318320  0.71934174  0.03415248    -0.79800
O1022       O  0.07645192  0.77635750  0.46229166    -0.79800
O1023       O  0.10887318  0.78542806  0.06986712    -0.79900
O1024       O  0.13315250  0.72129442  0.43322843    -0.79800
O1025       O  0.06957292  0.79193903  0.03322690    -0.79900
O1026       O  0.09139293  0.70186086  0.45858834    -0.79800
O1027       O  0.12010546  0.76812353  0.43358281    -0.79800
O1028       O  0.11188958  0.72348812  0.07101981    -0.79900
C1029       C  0.08262002  0.71851648  0.06416174     1.09900
C1030       C  0.09028330  0.77521532  0.43500139     1.09700
C1031       C  0.08081217  0.79471454  0.06236920     1.09900
C1032       C  0.10839673  0.70379927  0.43308897     1.09800
O1033       O  0.13924203  0.67647149  0.48316936    -0.79800
O1034       O  0.12676056  0.82554873  0.03036252    -0.79900
O1035       O  0.17369564  0.72131851  0.04453300    -0.79800
O1036       O  0.17696776  0.78746835  0.46563874    -0.79800
O1037       O  0.13206506  0.81646559  0.46806147    -0.79900
O1038       O  0.13412724  0.68727261  0.03337562    -0.79800
O1039       O  0.17841351  0.70844023  0.46812759    -0.79800
O1040       O  0.16853670  0.79494222  0.04506138    -0.79900
Co1041     Co  0.10873687  0.71340808  0.00165359     1.51500
Co1042     Co  0.10094087  0.79663841  0.49902297     1.51700
Co1043     Co  0.14135959  0.75639102  0.05416180     1.51600
Co1044     Co  0.14999720  0.74911212  0.46815326     1.51500
O1045       O  0.12364196  0.75769060  0.00847124    -1.41800
C1046       C  0.16670305  0.67976484  0.47071838     1.09800
C1047       C  0.15368572  0.82231577  0.04490153     1.09900
C1048       C  0.16231998  0.69258195  0.04452139     1.09800
C1049       C  0.16198995  0.81430838  0.46266005     1.09800
O1050       O  0.37815008  0.72181929  0.06922723    -0.79800
O1051       O  0.38404249  0.78328083  0.43242540    -0.79800
O1052       O  0.43539978  0.72064208  0.47286132    -0.79900
O1053       O  0.42235745  0.78793030  0.04087675    -0.79800
O1054       O  0.39839924  0.72236190  0.43363924    -0.79900
O1055       O  0.37854148  0.78328087  0.06982048    -0.79800
O1056       O  0.42416343  0.78741615  0.46704819    -0.79800
O1057       O  0.42244718  0.72234451  0.04194228    -0.79900
C1058       C  0.40849398  0.71783249  0.06823919     1.09900
C1059       C  0.41310084  0.78877443  0.43788264     1.09700
C1060       C  0.42746110  0.71737349  0.44287677     1.09900
C1061       C  0.40821377  0.78851967  0.06850135     1.09800
O1062       O  0.32301519  0.79370745  0.02968810    -0.79800
O1063       O  0.33605805  0.70788768  0.46048478    -0.79900
O1064       O  0.36153725  0.68539698  0.02904600    -0.79800
O1065       O  0.35900113  0.81633415  0.46952171    -0.79800
O1066       O  0.32458743  0.77609422  0.46239274    -0.79900
O1067       O  0.32096303  0.72030427  0.02715363    -0.79800
O1068       O  0.36601816  0.82333157  0.03090138    -0.79800
O1069       O  0.38080239  0.68140186  0.46817044    -0.79900
Co1070     Co  0.35048727  0.75441530  0.04413038     1.51500
Co1071     Co  0.36062676  0.74745997  0.45179113     1.51700
Co1072     Co  0.39755214  0.70684448  0.00405362     1.51600
Co1073     Co  0.39302033  0.79877975  0.50166599     1.51500
O1074       O  0.37536268  0.75242441  0.00038448    -1.41800
C1075       C  0.33609769  0.82173241  0.03301495     1.09800
C1076       C  0.35250902  0.68236031  0.45723630     1.09900
C1077       C  0.33139788  0.69137422  0.03061475     1.09800
C1078       C  0.33131043  0.80583517  0.46044120     1.09800
O1079       O  0.21356014  0.54089092  0.17459659    -0.79800
O1080       O  0.27723077  0.93551069  0.16662939    -0.79800
O1081       O  0.17748816  0.97716401  0.13279324    -0.79900
O1082       O  0.31632486  0.53152310  0.13809171    -0.79800
O1083       O  0.21240379  0.95808076  0.16890549    -0.79900
O1084       O  0.28229072  0.53950902  0.17732754    -0.79800
O1085       O  0.30821042  0.96693468  0.13587480    -0.79800
O1086       O  0.17936000  0.54136826  0.13338796    -0.79900
C1087       C  0.18560755  0.54627883  0.16327326     1.09900
C1088       C  0.30476638  0.94323347  0.15635086     1.09700
C1089       C  0.18323897  0.96163005  0.15836747     1.09900
C1090       C  0.31079589  0.54038164  0.16688999     1.09800
O1091       O  0.28157841  0.57459431  0.11927461    -0.79800
O1092       O  0.22820068  0.93966712  0.11664774    -0.79900
O1093       O  0.21075696  0.54065602  0.07193620    -0.79800
O1094       O  0.28124272  0.97246329  0.06987964    -0.79800
O1095       O  0.26528821  0.93801040  0.10648835    -0.79900
O1096       O  0.21909677  0.57544517  0.11236387    -0.79800
O1097       O  0.28440813  0.54454309  0.07609210    -0.79800
O1098       O  0.20588650  0.96745838  0.07575381    -0.79900
Co1099     Co  0.24844545  0.55367732  0.14534121     1.51500
Co1100     Co  0.25418695  0.96913719  0.14518849     1.51700
Co1101     Co  0.19822203  0.50761060  0.10441492     1.51600
Co1102     Co  0.29234907  0.50458340  0.10509519     1.51500
O1103       O  0.24538734  0.50935047  0.12295939    -1.41800
C1104       C  0.28585550  0.57263899  0.08931255     1.09800
C1105       C  0.20882148  0.94101925  0.09207918     1.09900
C1106       C  0.21064051  0.56944283  0.08297177     1.09800
C1107       C  0.27747178  0.94320015  0.07859656     1.09800
O1108       O  0.18847588  0.52917187  0.36235017    -0.79800
O1109       O  0.32312627  0.97561819  0.37423092    -0.79800
O1110       O  0.29629183  0.53262035  0.33106130    -0.79900
O1111       O  0.21774284  0.95446000  0.31744693    -0.79800
O1112       O  0.32561148  0.51243680  0.37309991    -0.79900
O1113       O  0.18646681  0.96538414  0.35878404    -0.79800
O1114       O  0.29664092  0.95192669  0.33212495    -0.79800
O1115       O  0.21871703  0.54360467  0.32186984    -0.79900
C1116       C  0.19129588  0.54282390  0.33496812     1.09900
C1117       C  0.32266714  0.95717842  0.34865614     1.09700
C1118       C  0.32360249  0.52786710  0.34536105     1.09900
C1119       C  0.18988857  0.95588131  0.32973216     1.09800
O1120       O  0.21773348  0.95843794  0.41993323    -0.79800
O1121       O  0.30097624  0.54382002  0.40983762    -0.79900
O1122       O  0.23372818  0.56486525  0.38551498    -0.79800
O1123       O  0.27451733  0.91964261  0.37088957    -0.79800
O1124       O  0.29087665  0.94676147  0.41444597    -0.79900
O1125       O  0.21823323  0.53160906  0.42387819    -0.79800
O1126       O  0.22738956  0.92709700  0.37794069    -0.79800
O1127       O  0.28100669  0.57279980  0.36893735    -0.79900
Co1128     Co  0.20865958  0.49591544  0.39164187     1.51500
Co1129     Co  0.29318368  0.49569552  0.40720562     1.51700
Co1130     Co  0.25511919  0.53674556  0.35346464     1.51600
Co1131     Co  0.25301044  0.95646365  0.35068333     1.51500
O1132       O  0.25441335  0.49647623  0.37624575    -1.41800
C1133       C  0.21797060  0.93031953  0.40680753     1.09800
C1134       C  0.29861043  0.57050371  0.39432663     1.09900
C1135       C  0.22099281  0.56054387  0.41281629     1.09800
C1136       C  0.28741462  0.92027321  0.39895312     1.09800
O1137       O  0.03481959  0.67383496  0.20941603    -0.79800
O1138       O  0.46902621  0.67567731  0.29422118    -0.79800
O1139       O  0.47372643  0.63840189  0.18471870    -0.79900
O1140       O  0.03491734  0.63258017  0.31669226    -0.79800
O1141       O  0.46379352  0.67921674  0.21811399    -0.79900
O1142       O  0.04622577  0.67644269  0.28932413    -0.79800
O1143       O  0.47600637  0.63140327  0.32398908    -0.79800
O1144       O  0.01396266  0.63353948  0.17976233    -0.79900
C1145       C  0.02947270  0.66089537  0.18154920     1.09900
C1146       C  0.46950307  0.66141526  0.32218307     1.09700
C1147       C  0.46344860  0.66680210  0.18922340     1.09900
C1148       C  0.04837756  0.65953597  0.31536408     1.09800
O1149       O  0.06891298  0.61952499  0.27034602    -0.79800
O1150       O  0.42848806  0.62312763  0.22271053    -0.79900
O1151       O  0.04412366  0.59034937  0.20644957    -0.79800
O1152       O  0.46604862  0.57465942  0.28581132    -0.79800
O1153       O  0.43425586  0.61770134  0.28646685    -0.79900
O1154       O  0.07142241  0.63217563  0.22396037    -0.79800
O1155       O  0.03987823  0.57677014  0.28193698    -0.79800
O1156       O  0.45651957  0.58169755  0.20406889    -0.79900
Co1157     Co  0.03641544  0.64920321  0.25056665     1.51500
Co1158     Co  0.45284598  0.64898521  0.25564199     1.51700
Co1159     Co  0.99680506  0.59877528  0.21250879     1.51600
Co1160     Co  0.50381890  0.60271444  0.29765654     1.51500
O1161       O  0.49620331  0.62622023  0.25500745    -1.41800
C1162       C  0.06757046  0.59070910  0.28013548     1.09800
C1163       C  0.42975594  0.59710014  0.20674065     1.09900
C1164       C  0.07036134  0.60549308  0.20917870     1.09800
C1165       C  0.43820711  0.58743959  0.28976806     1.09800
O1166       O  0.01391875  0.87326849  0.17927958    -0.79800
O1167       O  0.48031061  0.86387562  0.32721306    -0.79800
O1168       O  0.04606401  0.81911753  0.28474825    -0.79900
O1169       O  0.46017679  0.82307637  0.22147431    -0.79800
O1170       O  0.04007470  0.86062813  0.31789062    -0.79900
O1171       O  0.46827584  0.86551418  0.19025000    -0.79800
O1172       O  0.47278050  0.82255472  0.29449635    -0.79800
O1173       O  0.02914125  0.82842204  0.20529488    -0.79900
C1174       C  0.02577772  0.84492038  0.17881379     1.09900
C1175       C  0.47438101  0.83438036  0.32314931     1.09700
C1176       C  0.05020878  0.83223553  0.31273916     1.09900
C1177       C  0.45820781  0.83708892  0.19339404     1.09800
O1178       O  0.45286918  0.92094350  0.21236512    -0.79800
O1179       O  0.04080176  0.91872034  0.28347701    -0.79900
O1180       O  0.06715378  0.87300862  0.22104566    -0.79800
O1181       O  0.43586590  0.88154956  0.29465173    -0.79800
O1182       O  0.47033970  0.92249099  0.29474393    -0.79900
O1183       O  0.03799378  0.91716929  0.21082045    -0.79800
O1184       O  0.42604713  0.87913898  0.23165777    -0.79800
O1185       O  0.06927792  0.87658334  0.26838767    -0.79900
Co1186     Co  0.99456572  0.89502299  0.21706493     1.51500
Co1187     Co  0.00642281  0.89142229  0.30205133     1.51700
Co1188     Co  0.03534980  0.84976432  0.24849256     1.51600
Co1189     Co  0.45231081  0.85138734  0.26079406     1.51500
O1190       O  0.99574966  0.87206193  0.25824095    -1.41800
C1191       C  0.42651488  0.90515557  0.21575843     1.09800
C1192       C  0.06816154  0.90483945  0.27984235     1.09900
C1193       C  0.06516763  0.90160920  0.20946458     1.09800
C1194       C  0.44258910  0.91089938  0.30069485     1.09800
C1195       C  0.35441864  0.94549619  0.33717165    -0.05000
C1196       C  0.36607788  0.95705755  0.30770398    -0.02100
C1197       C  0.39834312  0.95147745  0.29941580     0.02800
C1198       C  0.41707068  0.92943441  0.31716162    -0.05000
C1199       C  0.40649368  0.91951888  0.34772628    -0.02100
C1200       C  0.37579288  0.92844486  0.35828415     0.02800
C1201       C  0.34479443  0.97715316  0.28871959     0.37500
C1202       C  0.42897188  0.90493640  0.37054445     0.37500
C1203       C  0.36750319  0.92160320  0.39152453     0.35900
C1204       C  0.41607838  0.97454020  0.28139264     0.35900
N1205       N  0.36254308  0.91633928  0.41850134    -0.38900
N1206       N  0.43319086  0.99330410  0.27071123    -0.38900
N1207       N  0.44622522  0.89519367  0.39062599    -0.38400
N1208       N  0.32454129  0.99320946  0.27786913    -0.38400
C1209       C  0.09984480  0.91930418  0.28968340    -0.05000
C1210       C  0.10160139  0.95030766  0.30299584    -0.02100
C1211       C  0.12995683  0.95984241  0.31913223     0.02800
C1212       C  0.15982402  0.94441310  0.31281711    -0.05000
C1213       C  0.15871784  0.91431778  0.29716414    -0.02100
C1214       C  0.12865172  0.90015646  0.29013803     0.02800
C1215       C  0.07325696  0.97050172  0.30506798     0.37500
C1216       C  0.18773593  0.89550638  0.29285000     0.37500
C1217       C  0.12753963  0.86516351  0.28966651     0.35900
C1218       C  0.12564105  0.97767174  0.34874262     0.35900
N1219       N  0.12665204  0.83730066  0.29022383    -0.38900
N1220       N  0.12574782  0.49014138  0.36976425    -0.38900
N1221       N  0.21035448  0.87988706  0.28889823    -0.38400
N1222       N  0.05045615  0.98632280  0.30676129    -0.38400
C1223       C  0.35365962  0.54102849  0.33002081    -0.05000
C1224       C  0.38535390  0.53182208  0.34047805    -0.02100
C1225       C  0.41271697  0.54386829  0.32458825     0.02800
C1226       C  0.40953384  0.56925007  0.30172938    -0.05000
C1227       C  0.37802695  0.58118312  0.29452609    -0.02100
C1228       C  0.35076259  0.56534083  0.30579563     0.02800
C1229       C  0.39077784  0.51182578  0.36895342     0.37500
C1230       C  0.37264762  0.61172019  0.27801618     0.37500
C1231       C  0.31971011  0.57557147  0.29246364     0.35900
C1232       C  0.44441134  0.53234008  0.33448975     0.35900
N1233       N  0.29522107  0.58369972  0.28134292    -0.38900
N1234       N  0.46959748  0.52290453  0.34231976    -0.38900
N1235       N  0.36768020  0.63692374  0.26693582    -0.38400
N1236       N  0.39603892  0.49661165  0.39206885    -0.38400
C1237       C  0.16079187  0.55765690  0.32046670    -0.05000
C1238       C  0.15910815  0.57389550  0.29047340    -0.02100
C1239       C  0.12952824  0.58778827  0.27972270     0.02800
C1240       C  0.09957124  0.57682901  0.29226492    -0.05000
C1241       C  0.10172596  0.56085550  0.32243775    -0.02100
C1242       C  0.13194719  0.55677740  0.33828883     0.02800
C1243       C  0.18801665  0.58079956  0.27301683     0.37500
C1244       C  0.07310066  0.55250201  0.33955882     0.37500
C1245       C  0.13313976  0.55757283  0.37352553     0.35900
C1246       C  0.13193875  0.61843394  0.26322774     0.35900
N1247       N  0.13409386  0.55841772  0.40159347    -0.38900
N1248       N  0.13524252  0.64379202  0.25219452    -0.38900
N1249       N  0.05056362  0.54519576  0.35345274    -0.38400
N1250       N  0.21076229  0.58677105  0.25879689    -0.38400
C1251       C  0.33426894  0.93025254  0.17199655    -0.05000
C1252       C  0.34540308  0.89861443  0.16921611    -0.02100
C1253       C  0.37390191  0.88952271  0.18629797     0.02800
C1254       C  0.39502712  0.91370726  0.19934302    -0.05000
C1255       C  0.38381944  0.94541334  0.19959048    -0.02100
C1256       C  0.35181968  0.95199243  0.19064418     0.02800
C1257       C  0.32761213  0.87553704  0.14980659     0.37500
C1258       C  0.40657920  0.97055366  0.20424751     0.37500
C1259       C  0.33275735  0.97601818  0.20609378     0.35900
C1260       C  0.37913122  0.85552211  0.19208996     0.35900
N1261       N  0.31391236  0.49244688  0.21753243    -0.38900
N1262       N  0.38104510  0.82826974  0.19760810    -0.38900
N1263       N  0.42941859  0.48796988  0.20565188    -0.38400
N1264       N  0.31413055  0.85678186  0.13401966    -0.38400
C1265       C  0.09572718  0.91636715  0.19612070    -0.05000
C1266       C  0.12704120  0.90240555  0.20162222    -0.02100
C1267       C  0.15542339  0.91853036  0.19233822     0.02800
C1268       C  0.15358824  0.94667983  0.17322196    -0.05000
C1269       C  0.12202869  0.95879812  0.16485599    -0.02100
C1270       C  0.09394820  0.94418505  0.17652594     0.02800
C1271       C  0.13127026  0.86967788  0.21306397     0.37500
C1272       C  0.11723432  0.98680405  0.14404107     0.37500
C1273       C  0.06283826  0.95640909  0.16555138     0.35900
C1274       C  0.18660050  0.90513786  0.20148492     0.35900
N1275       N  0.03800950  0.96583294  0.15649614    -0.38900
N1276       N  0.21143323  0.89458378  0.20909057    -0.38900
N1277       N  0.11247064  0.00884989  0.12736285    -0.38400
N1278       N  0.13706952  0.84347121  0.22079085    -0.38400
C1279       C  0.39829147  0.58636569  0.19164892    -0.05000
C1280       C  0.39466566  0.55520481  0.17959435    -0.02100
C1281       C  0.36732761  0.53893893  0.18875606     0.02800
C1282       C  0.33803492  0.55551478  0.18547496    -0.05000
C1283       C  0.33889391  0.58901945  0.19114740    -0.02100
C1284       C  0.36915183  0.60465433  0.19448457     0.02800
C1285       C  0.41949495  0.53900313  0.16216676     0.37500
C1286       C  0.30944111  0.60594762  0.19774810     0.37500
C1287       C  0.36983788  0.63946088  0.19624661     0.35900
C1288       C  0.37278258  0.53013392  0.22213910     0.35900
N1289       N  0.37007804  0.66729298  0.19723272    -0.38900
N1290       N  0.37556409  0.02418802  0.24907653    -0.38900
N1291       N  0.28601681  0.61886442  0.20487258    -0.38400
N1292       N  0.43934891  0.03174947  0.15601201    -0.38400
C1293       C  0.10098308  0.59045575  0.19863032    -0.05000
C1294       C  0.12497460  0.60962610  0.18483418    -0.02100
C1295       C  0.15427108  0.59571523  0.17588639     0.02800
C1296       C  0.16096183  0.56306229  0.18243622    -0.05000
C1297       C  0.13967192  0.54563417  0.20145632    -0.02100
C1298       C  0.10871441  0.55809538  0.20705724     0.02800
C1299       C  0.12075804  0.64410216  0.18144292     0.37500
C1300       C  0.15087541  0.51695675  0.21838351     0.37500
C1301       C  0.08550787  0.53778154  0.22249003     0.35900
C1302       C  0.17815793  0.61569665  0.16126242     0.35900
N1303       N  0.06687455  0.52141364  0.23447251    -0.38900
N1304       N  0.19650657  0.63273173  0.14985994    -0.38900
N1305       N  0.15937033  0.98801275  0.23229969    -0.38400
N1306       N  0.11903537  0.67183995  0.17999059    -0.38400
C1307       C  0.31900111  0.85375690  0.04030407    -0.05000
C1308       C  0.33363585  0.88421814  0.03374597    -0.02100
C1309       C  0.32024209  0.91368219  0.04540055     0.02800
C1310       C  0.28946900  0.91429594  0.05895603    -0.05000
C1311       C  0.27242951  0.88499107  0.05754854    -0.02100
C1312       C  0.28879878  0.85507881  0.05450399     0.02800
C1313       C  0.36191932  0.88594796  0.01416410     0.37500
C1314       C  0.24205154  0.88656583  0.04053313     0.37500
C1315       C  0.27353691  0.82535208  0.06309597     0.35900
C1316       C  0.33802041  0.94333435  0.04280284     0.35900
N1317       N  0.26328094  0.80028154  0.06888366    -0.38900
N1318       N  0.35221304  0.96701883  0.04061304    -0.38900
N1319       N  0.21877355  0.88733888  0.02473414    -0.38400
N1320       N  0.38419728  0.88758631  0.99814116    -0.38400
C1321       C  0.29321136  0.60445949  0.07222084    -0.05000
C1322       C  0.28975383  0.63489262  0.08855530    -0.02100
C1323       C  0.30056281  0.66398612  0.07449456     0.02800
C1324       C  0.31022027  0.66457594  0.04219414    -0.05000
C1325       C  0.30593185  0.63615728  0.02408677    -0.02100
C1326       C  0.30309860  0.60591293  0.03982155     0.02800
C1327       C  0.27484549  0.63759337  0.11964882     0.37500
C1328       C  0.29040521  0.63942856  0.99267388     0.37500
C1329       C  0.30882512  0.57663125  0.02195279     0.35900
C1330       C  0.30164121  0.69348494  0.09327371     0.35900
N1331       N  0.31315492  0.55282605  0.00819530    -0.38900
N1332       N  0.30239234  0.71703921  0.10817794    -0.38900
N1333       N  0.28188360  0.63393314  0.46714024    -0.38400
N1334       N  0.26281104  0.64126839  0.14427109    -0.38400
C1335       C  0.29594837  0.88878594  0.41413020    -0.05000
C1336       C  0.28670858  0.88153068  0.44608058    -0.02100
C1337       C  0.29089836  0.85003636  0.45823497     0.02800
C1338       C  0.31014034  0.82817002  0.44186218    -0.05000
C1339       C  0.31648020  0.83383110  0.40912958    -0.02100
C1340       C  0.30902459  0.86383594  0.39496393     0.02800
C1341       C  0.27189748  0.90587986  0.46587395     0.37500
C1342       C  0.32756396  0.80771270  0.38919927     0.37500
C1343       C  0.31550733  0.86880557  0.36087395     0.35900
C1344       C  0.26677303  0.83647456  0.47837015     0.35900
N1345       N  0.32032683  0.87231922  0.33358216    -0.38900
N1346       N  0.25068000  0.82526277  0.99576543    -0.38900
N1347       N  0.33492708  0.78704613  0.37219351    -0.38400
N1348       N  0.26064545  0.92621417  0.48106531    -0.38400
C1349       C  0.31714929  0.59899134  0.40628622    -0.05000
C1350       C  0.34022451  0.59543600  0.43191956    -0.02100
C1351       C  0.35171974  0.62266637  0.44843474     0.02800
C1352       C  0.34140757  0.65397411  0.43861143    -0.05000
C1353       C  0.32291811  0.65762099  0.40974209    -0.02100
C1354       C  0.31178414  0.63020535  0.39301638     0.02800
C1355       C  0.35332658  0.56408370  0.44098235     0.37500
C1356       C  0.31575143  0.68944953  0.39682041     0.37500
C1357       C  0.29755357  0.63448865  0.36085065     0.35900
C1358       C  0.37065326  0.61774213  0.47822343     0.35900
N1359       N  0.28724315  0.63832121  0.33481917    -0.38900
N1360       N  0.37735089  0.61507798  0.00476678    -0.38900
N1361       N  0.30986449  0.71477217  0.38637527    -0.38400
N1362       N  0.36417976  0.53929607  0.44834961    -0.38400
C1363       C  0.46399731  0.81690499  0.35249484    -0.05000
C1364       C  0.47407691  0.82799117  0.38384443    -0.02100
C1365       C  0.45687983  0.81972212  0.41156329     0.02800
C1366       C  0.43214762  0.79709252  0.40915206    -0.05000
C1367       C  0.42389806  0.78389004  0.37809525    -0.02100
C1368       C  0.43874785  0.79481102  0.34999566     0.02800
C1369       C  0.49986350  0.85096277  0.38777126     0.37500
C1370       C  0.40097214  0.75803305  0.37414458     0.37500
C1371       C  0.42629967  0.78460491  0.31841643     0.35900
C1372       C  0.46402907  0.83547517  0.44228189     0.35900
N1373       N  0.41627000  0.77647886  0.29334947    -0.38900
N1374       N  0.46946810  0.84839265  0.46660089    -0.38900
N1375       N  0.38344069  0.73703106  0.36938185    -0.38400
N1376       N  0.51866112  0.87099900  0.39138059    -0.38400
C1377       C  0.44487276  0.82309228  0.16200244    -0.05000
C1378       C  0.43177115  0.79217065  0.15971012    -0.02100
C1379       C  0.41707274  0.78231949  0.13002797     0.02800
C1380       C  0.42344198  0.79873547  0.10018460    -0.05000
C1381       C  0.43580690  0.82987717  0.10266978    -0.02100
C1382       C  0.44179534  0.84321116  0.13361064     0.02800
C1383       C  0.42923869  0.77234527  0.18856429     0.37500
C1384       C  0.43666408  0.85035646  0.07405467     0.37500
C1385       C  0.43855096  0.87799323  0.13607829     0.35900
C1386       C  0.39207453  0.75849917  0.13202272     0.35900
N1387       N  0.43555096  0.90568281  0.13738542    -0.38900
N1388       N  0.37176496  0.74007156  0.13526558    -0.38900
N1389       N  0.43713495  0.86694143  0.05147899    -0.38400
N1390       N  0.42732129  0.75635594  0.21146089    -0.38400
C1391       C  0.46052613  0.67715996  0.35421057    -0.05000
C1392       C  0.44672871  0.65787708  0.37888620    -0.02100
C1393       C  0.44294631  0.66963519  0.41064325     0.02800
C1394       C  0.44873523  0.70183488  0.41825417    -0.05000
C1395       C  0.46537228  0.72013779  0.39556975    -0.02100
C1396       C  0.46985941  0.70870301  0.36320773     0.02800
C1397       C  0.43429681  0.62613068  0.37212278     0.37500
C1398       C  0.48367603  0.74661612  0.40848376     0.37500
C1399       C  0.48290221  0.72960880  0.33904278     0.35900
C1400       C  0.43797542  0.64733840  0.43693341     0.35900
N1401       N  0.49198569  0.74632997  0.31888251    -0.38900
N1402       N  0.43636431  0.62888147  0.45782651    -0.38900
N1403       N  0.49974947  0.76602319  0.42045724    -0.38400
N1404       N  0.42374162  0.60078178  0.36824505    -0.38400
C1405       C  0.42600606  0.70414249  0.09701369    -0.05000
C1406       C  0.41447687  0.67571364  0.11047056    -0.02100
C1407       C  0.42996047  0.66254949  0.13782133     0.02800
C1408       C  0.44971764  0.68192257  0.15863032    -0.05000
C1409       C  0.46180721  0.71044589  0.14488346    -0.02100
C1410       C  0.45275847  0.71912984  0.11241088     0.02800
C1411       C  0.39013311  0.65677729  0.09364259     0.37500
C1412       C  0.48432092  0.73002137  0.16308896     0.37500
C1413       C  0.47142810  0.74232429  0.09489814     0.35900
C1414       C  0.43231466  0.62784364  0.13747106     0.35900
N1415       N  0.48687169  0.76040579  0.08086185    -0.38900
N1416       N  0.43543051  0.60053164  0.13329243    -0.38900
N1417       N  0.50150481  0.74658432  0.17766432    -0.38400
N1418       N  0.37147716  0.64013868  0.08126059    -0.38400
C1419       C  0.20614681  0.90028787  0.42319232    -0.05000
C1420       C  0.18572732  0.90248339  0.44979684    -0.02100
C1421       C  0.16961916  0.87496014  0.46070693     0.02800
C1422       C  0.17812937  0.84365051  0.44994760    -0.05000
C1423       C  0.19983395  0.84098521  0.42458219    -0.02100
C1424       C  0.21185350  0.86892958  0.40978000     0.02800
C1425       C  0.17925699  0.93326236  0.46505732     0.37500
C1426       C  0.20740034  0.80953952  0.41122860     0.37500
C1427       C  0.22795471  0.86431687  0.37935299     0.35900
C1428       C  0.14148359  0.88036721  0.47948002     0.35900
N1429       N  0.23989323  0.85958911  0.35478698    -0.38900
N1430       N  0.11806372  0.88691274  0.49224358    -0.38900
N1431       N  0.21348162  0.78460756  0.40046064    -0.38400
N1432       N  0.17409069  0.95751653  0.47769732    -0.38400
C1433       C  0.18283985  0.64935457  0.45806246    -0.05000
C1434       C  0.20293785  0.65057069  0.43109751    -0.02100
C1435       C  0.21161095  0.62195931  0.41476143     0.02800
C1436       C  0.20772707  0.59080669  0.42919516    -0.05000
C1437       C  0.18804664  0.58948152  0.45661365    -0.02100
C1438       C  0.17432285  0.61807500  0.46960545     0.02800
C1439       C  0.21328901  0.68123372  0.41829363     0.37500
C1440       C  0.17986769  0.55865141  0.47057227     0.37500
C1441       C  0.15074132  0.61452257  0.49462236     0.35900
C1442       C  0.21823263  0.62525665  0.38052004     0.35900
N1443       N  0.13157852  0.61148360  0.51413989    -0.38900
N1444       N  0.22155992  0.62785031  0.35287349    -0.38900
N1445       N  0.17305226  0.53431363  0.48215074    -0.38400
N1446       N  0.22233411  0.70536138  0.40797427    -0.38400
C1447       C  0.19175413  0.91014167  0.08482679    -0.05000
C1448       C  0.16149603  0.91023814  0.06927462    -0.02100
C1449       C  0.14660213  0.88068672  0.06239638     0.02800
C1450       C  0.16485616  0.85145228  0.06339415    -0.05000
C1451       C  0.19122860  0.85058214  0.08506066    -0.02100
C1452       C  0.20333847  0.87974796  0.09770219     0.02800
C1453       C  0.14422875  0.94023898  0.06349531     0.37500
C1454       C  0.20244446  0.81995405  0.09821171     0.37500
C1455       C  0.22757113  0.87740826  0.12342504     0.35900
C1456       C  0.11185969  0.88029813  0.06039086     0.35900
N1457       N  0.24638000  0.87481745  0.14436334    -0.38900
N1458       N  0.08415996  0.88079659  0.05901539    -0.38900
N1459       N  0.21018576  0.79557453  0.10974433    -0.38400
N1460       N  0.13035351  0.96413116  0.05900177    -0.38400
C1461       C  0.17925050  0.66327918  0.05724913    -0.05000
C1462       C  0.16126569  0.64293142  0.07726319    -0.02100
C1463       C  0.16778673  0.60991745  0.07923776     0.02800
C1464       C  0.19514696  0.59689815  0.06533965    -0.05000
C1465       C  0.21227859  0.61613692  0.04385622    -0.02100
C1466       C  0.20509673  0.64962694  0.04052029     0.02800
C1467       C  0.13463802  0.65519284  0.09521379     0.37500
C1468       C  0.23063143  0.59935355  0.02013521     0.37500
C1469       C  0.22281470  0.67007042  0.01914461     0.35900
C1470       C  0.14414921  0.58887807  0.09280086     0.35900
N1471       N  0.23613457  0.68792534  0.00276946    -0.38900
N1472       N  0.12365274  0.57355166  0.10279334    -0.38900
N1473       N  0.24302623  0.58436556  0.00041127    -0.38400
N1474       N  0.11299940  0.66275720  0.11028248    -0.38400
C1475       C  0.07481751  0.78884650  0.40498675    -0.05000
C1476       C  0.06697206  0.76953569  0.37802794    -0.02100
C1477       C  0.06434970  0.78277225  0.34639246     0.02800
C1478       C  0.06590952  0.81623730  0.34190801    -0.05000
C1479       C  0.07520571  0.83546824  0.36914247    -0.02100
C1480       C  0.07683572  0.82210699  0.40051633     0.02800
C1481       C  0.05296174  0.73892802  0.38408545     0.37500
C1482       C  0.08334920  0.86921598  0.36560448     0.37500
C1483       C  0.07552917  0.84283826  0.42860776     0.35900
C1484       C  0.06080374  0.76221706  0.31838693     0.35900
N1485       N  0.07213292  0.85912053  0.45096752    -0.39500
N1486       N  0.05811633  0.74686850  0.29511352    -0.38900
N1487       N  0.08977967  0.89616881  0.36373388    -0.38400
N1488       N  0.03950732  0.71546564  0.38942343    -0.38400
C1489       C  0.03654545  0.83202758  0.14752026    -0.05000
C1490       C  0.02494798  0.84326848  0.11634453    -0.02100
C1491       C  0.03569175  0.82790002  0.08786481     0.02800
C1492       C  0.06449993  0.81025925  0.09000033    -0.05000
C1493       C  0.08114536  0.81028160  0.12045229    -0.02100
C1494       C  0.06442402  0.81320926  0.14861771     0.02800
C1495       C  0.01034002  0.87476961  0.11229601     0.37500
C1496       C  0.11490681  0.81774332  0.12364782     0.37500
C1497       C  0.08030236  0.80345192  0.17886737     0.35900
C1498       C  0.02077756  0.83486325  0.05651006     0.35900
N1499       N  0.09286130  0.79577334  0.20302341    -0.38900
N1500       N  0.00914254  0.84049989  0.03132522    -0.38900
N1501       N  0.14128840  0.82429282  0.12907105    -0.38400
N1502       N  0.49812842  0.89887186  0.10599843    -0.38400
C1503       C  0.10050865  0.68573870  0.40284500    -0.05000
C1504       C  0.11203642  0.69589938  0.37227545    -0.02100
C1505       C  0.09594997  0.68655847  0.34334816     0.02800
C1506       C  0.06850357  0.66709045  0.34486438    -0.05000
C1507       C  0.06246213  0.65101713  0.37508151    -0.02100
C1508       C  0.07926458  0.65978064  0.40359473     0.02800
C1509       C  0.13954602  0.71685028  0.37012758     0.37500
C1510       C  0.03781475  0.62672203  0.37831959     0.37500
C1511       C  0.07385619  0.64259042  0.43371343     0.35900
C1512       C  0.10834214  0.69662442  0.31244147     0.35900
N1513       N  0.06936552  0.62839134  0.45733439    -0.38900
N1514       N  0.11893892  0.70525325  0.28829000    -0.38900
N1515       N  0.51912464  0.60748845  0.38173513    -0.38400
N1516       N  0.16154799  0.73346864  0.36849723    -0.38400
C1517       C  0.06244264  0.70905466  0.09285995    -0.05000
C1518       C  0.07180231  0.71941137  0.12484097    -0.02100
C1519       C  0.05773190  0.70658136  0.15274161     0.02800
C1520       C  0.03841077  0.67873647  0.15065456    -0.05000
C1521       C  0.02960070  0.66767274  0.11887481    -0.02100
C1522       C  0.03963241  0.68417957  0.09051477     0.02800
C1523       C  0.10065802  0.73796144  0.13071156     0.37500
C1524       C  0.01232234  0.63785501  0.11451928     0.37500
C1525       C  0.02892120  0.67311422  0.05882447     0.35900
C1526       C  0.06627366  0.72059589  0.18407997     0.35900
N1527       N  0.02005127  0.66423020  0.03362297    -0.38900
N1528       N  0.07291890  0.73095851  0.20937534    -0.38900
N1529       N  0.99937148  0.61363604  0.11048807    -0.38400
N1530       N  0.12487707  0.75023065  0.13654645    -0.38400
O1531       O  0.07801517  0.70275201  0.53486952    -0.79800
O1532       O  0.07614362  0.78099740  0.96141309    -0.79800
O1533       O  0.10766197  0.78030701  0.57023772    -0.79900
O1534       O  0.10850584  0.71628440  0.94904253    -0.79800
O1535       O  0.06896484  0.78620487  0.53318543    -0.79900
O1536       O  0.08959445  0.67730148  0.98005122    -0.79800
O1537       O  0.11958900  0.77013371  0.93301990    -0.79800
O1538       O  0.11565082  0.71752962  0.57059797    -0.79900
C1539       C  0.08842839  0.70490815  0.56407005     1.09900
C1540       C  0.09026565  0.77926053  0.93411879     1.09700
C1541       C  0.07955342  0.78924503  0.56248981     1.09900
C1542       C  0.09387004  0.68924302  0.95175967     1.09800
O1543       O  0.15076398  0.69375197  0.98133865    -0.79800
O1544       O  0.12402656  0.82325845  0.53155209    -0.79900
O1545       O  0.17801113  0.72364385  0.54343603    -0.79800
O1546       O  0.17502065  0.78458225  0.97302910    -0.79800
O1547       O  0.13295367  0.81691999  0.96733713    -0.79900
O1548       O  0.14310643  0.68546489  0.53015486    -0.79800
O1549       O  0.17245025  0.72044976  0.94154112    -0.79800
O1550       O  0.16704164  0.79460229  0.54543970    -0.79900
Co1551     Co  0.11097713  0.70992597  0.50278585     1.51500
Co1552     Co  0.10140287  0.80039279  0.99850596     1.51700
Co1553     Co  0.14235627  0.75409191  0.55374883     1.51600
Co1554     Co  0.14465692  0.74657148  0.96807988     1.51500
O1555       O  0.12546433  0.75422895  0.50744687    -1.41800
C1556       C  0.16942767  0.69385292  0.95708895     1.09800
C1557       C  0.15121007  0.82130227  0.54561064     1.09900
C1558       C  0.17025978  0.69398128  0.54197102     1.09800
C1559       C  0.16301216  0.81278561  0.96685153     1.09800
O1560       O  0.38114426  0.71983260  0.56872479    -0.79800
O1561       O  0.38499430  0.78279007  0.93202861    -0.79800
O1562       O  0.43231894  0.71854039  0.97354535    -0.79900
O1563       O  0.42226979  0.78817893  0.54031461    -0.79800
O1564       O  0.39543582  0.72127895  0.93423919    -0.79900
O1565       O  0.37920212  0.78125284  0.56991776    -0.79800
O1566       O  0.42510648  0.78582894  0.96697872    -0.79800
O1567       O  0.42541389  0.72261558  0.54158114    -0.79900
C1568       C  0.41168369  0.71732931  0.56789503     1.09900
C1569       C  0.41428697  0.78734077  0.93764442     1.09700
C1570       C  0.42414468  0.71489592  0.94369805     1.09900
C1571       C  0.40859372  0.78773054  0.56815209     1.09800
O1572       O  0.32258326  0.79042958  0.53043815    -0.79800
O1573       O  0.33250179  0.71055184  0.96093954    -0.79900
O1574       O  0.36593958  0.68336315  0.52782843    -0.79800
O1575       O  0.36165325  0.81772751  0.96869703    -0.79800
O1576       O  0.32484333  0.77959259  0.96210366    -0.79900
O1577       O  0.32411168  0.71684888  0.52634457    -0.79800
O1578       O  0.36454147  0.82118901  0.53207383    -0.79800
O1579       O  0.37589403  0.68201703  0.96954847    -0.79900
Co1580     Co  0.35202257  0.75178964  0.54406200     1.51500
Co1581     Co  0.35924981  0.74872825  0.95191323     1.51700
Co1582     Co  0.40114069  0.70676497  0.50322265     1.51600
Co1583     Co  0.39413689  0.79902385  0.00140134     1.51500
O1584       O  0.37673387  0.75135663  0.50022513    -1.41800
C1585       C  0.33470034  0.81892503  0.53378798     1.09800
C1586       C  0.34775781  0.68414623  0.95835431     1.09900
C1587       C  0.33557436  0.68824742  0.52931345     1.09800
C1588       C  0.33320527  0.80892911  0.96044113     1.09800
O1589       O  0.21227761  0.54040229  0.67608934    -0.79800
O1590       O  0.27509082  0.93420871  0.66601318    -0.79800
O1591       O  0.17622286  0.97838060  0.63228277    -0.79900
O1592       O  0.31473412  0.53237514  0.63496959    -0.79800
O1593       O  0.21060564  0.95744685  0.66785494    -0.79900
O1594       O  0.28218176  0.54043322  0.67539474    -0.79800
O1595       O  0.30654736  0.96494717  0.63509743    -0.79800
O1596       O  0.17674062  0.54031047  0.63579321    -0.79900
C1597       C  0.18343240  0.54420568  0.66592572     1.09900
C1598       C  0.30275777  0.94151479  0.65577656     1.09700
C1599       C  0.18154708  0.96209850  0.65745619     1.09900
C1600       C  0.31012682  0.54207864  0.66359420     1.09800
O1601       O  0.27778043  0.57470213  0.61664716    -0.79800
O1602       O  0.22598774  0.93977783  0.61558821    -0.79900
O1603       O  0.20787794  0.54275358  0.57292150    -0.79800
O1604       O  0.27947187  0.97031264  0.56909668    -0.79800
O1605       O  0.26297637  0.93644045  0.60595301    -0.79900
O1606       O  0.21531140  0.57555376  0.61484472    -0.79800
O1607       O  0.28228355  0.54312012  0.57416206    -0.79800
O1608       O  0.20382342  0.96816138  0.57500111    -0.79900
Co1609     Co  0.24639113  0.55362833  0.64515323     1.51500
Co1610     Co  0.25267711  0.96825791  0.64451387     1.51700
Co1611     Co  0.19600851  0.50821941  0.60443189     1.51600
Co1612     Co  0.29042556  0.50407707  0.60370524     1.51500
O1613       O  0.24344951  0.50949642  0.62212579    -1.41800
C1614       C  0.28359278  0.57142649  0.58692217     1.09800
C1615       C  0.20663016  0.94147034  0.59100445     1.09900
C1616       C  0.20807497  0.57106693  0.58501327     1.09800
C1617       C  0.27529066  0.94114823  0.57800237     1.09800
O1618       O  0.18460416  0.53333258  0.86163243    -0.79800
O1619       O  0.32114314  0.97113770  0.87223109    -0.79800
O1620       O  0.29141567  0.53544977  0.82788146    -0.79900
O1621       O  0.21500566  0.95238578  0.81836133    -0.79800
O1622       O  0.32077925  0.51497570  0.86970179    -0.79900
O1623       O  0.18371602  0.96268588  0.85985174    -0.79800
O1624       O  0.29366299  0.95224802  0.82918674    -0.79800
O1625       O  0.21436381  0.54620972  0.82017123    -0.79900
C1626       C  0.18724732  0.54608685  0.83388393     1.09900
C1627       C  0.32020740  0.95595218  0.84549160     1.09700
C1628       C  0.31872730  0.53056130  0.84195859     1.09900
C1629       C  0.18714831  0.95421019  0.83051711     1.09800
O1630       O  0.21601064  0.95805617  0.91981811    -0.79800
O1631       O  0.29649811  0.54588217  0.90847583    -0.79900
O1632       O  0.23047531  0.56937555  0.88152589    -0.79800
O1633       O  0.27424384  0.92463700  0.87795442    -0.79800
O1634       O  0.29092218  0.95448466  0.92038772    -0.79900
O1635       O  0.21520539  0.53851226  0.92197845    -0.79800
O1636       O  0.22666849  0.92532907  0.87879705    -0.79800
O1637       O  0.27769283  0.57517238  0.86736217    -0.79900
Co1638     Co  0.20405817  0.50093168  0.89159646     1.51500
Co1639     Co  0.28863571  0.49804184  0.90448744     1.51700
Co1640     Co  0.25109816  0.53960637  0.85115884     1.51600
Co1641     Co  0.25077930  0.95581020  0.85068887     1.51500
O1642       O  0.24927208  0.49981957  0.87455066    -1.41800
C1643       C  0.21732632  0.92925010  0.90784045     1.09800
C1644       C  0.29470985  0.57264305  0.89314871     1.09900
C1645       C  0.21830746  0.56690328  0.90920365     1.09800
C1646       C  0.28753629  0.92687528  0.90593857     1.09800
O1647       O  0.03782223  0.65856824  0.70535069    -0.79800
O1648       O  0.46543825  0.67518341  0.79528447    -0.79800
O1649       O  0.47506691  0.64059704  0.68830781    -0.79900
O1650       O  0.03198848  0.61964289  0.82504606    -0.79800
O1651       O  0.46503952  0.68231497  0.71956675    -0.79900
O1652       O  0.03701351  0.66711420  0.80304938    -0.79800
O1653       O  0.46870998  0.62938259  0.82367952    -0.79800
O1654       O  0.01377643  0.62183904  0.67577370    -0.79900
C1655       C  0.03135243  0.64648525  0.67744122     1.09900
C1656       C  0.46396722  0.65988183  0.82259430     1.09700
C1657       C  0.46648785  0.66957085  0.69103101     1.09900
C1658       C  0.04037719  0.64799812  0.82724998     1.09800
O1659       O  0.06413565  0.62100376  0.77004113    -0.79800
O1660       O  0.42769825  0.62646123  0.71932782    -0.79900
O1661       O  0.03710213  0.58174254  0.71114675    -0.79800
O1662       O  0.46025571  0.57589918  0.77964449    -0.79800
O1663       O  0.42944390  0.61916626  0.78277088    -0.79900
O1664       O  0.06474727  0.62445370  0.73035786    -0.79800
O1665       O  0.03652565  0.57586744  0.78145195    -0.79800
O1666       O  0.45426553  0.58168674  0.70703619    -0.79900
Co1667     Co  0.03400324  0.65669533  0.75446262     1.51500
Co1668     Co  0.45106737  0.65073991  0.75479195     1.51700
Co1669     Co  0.99429339  0.60488313  0.71531981     1.51600
Co1670     Co  0.49772694  0.60072585  0.79794237     1.51500
O1671       O  0.49537575  0.62840000  0.75649591    -1.41800
C1672       C  0.06343991  0.59166920  0.78069776     1.09800
C1673       C  0.42854720  0.59907777  0.70559669     1.09900
C1674       C  0.06385158  0.59699840  0.71459957     1.09800
C1675       C  0.43278384  0.58882074  0.78462491     1.09800
O1676       O  0.01160855  0.87379525  0.67702567    -0.79800
O1677       O  0.47907742  0.86445818  0.82622374    -0.79800
O1678       O  0.04419603  0.82261561  0.78381226    -0.79900
O1679       O  0.46102695  0.82280828  0.72043049    -0.79800
O1680       O  0.03809191  0.86448044  0.81650073    -0.79900
O1681       O  0.46815695  0.86529606  0.68907577    -0.79800
O1682       O  0.47294650  0.82286999  0.79354954    -0.79800
O1683       O  0.02709286  0.82988369  0.70428831    -0.79900
C1684       C  0.02379866  0.84546536  0.67725923     1.09900
C1685       C  0.47424884  0.83466047  0.82226100     1.09700
C1686       C  0.04862673  0.83615849  0.81156871     1.09900
C1687       C  0.45887584  0.83667425  0.69231818     1.09800
O1688       O  0.45096110  0.92042323  0.71056039    -0.79800
O1689       O  0.03796372  0.92214067  0.78126697    -0.79900
O1690       O  0.06383904  0.87575228  0.71906343    -0.79800
O1691       O  0.43451383  0.88071544  0.79293708    -0.79800
O1692       O  0.46750202  0.92279799  0.79253447    -0.79900
O1693       O  0.03461508  0.91950479  0.70779402    -0.79800
O1694       O  0.42508202  0.87796645  0.72985167    -0.79800
O1695       O  0.06604148  0.87983429  0.76596479    -0.79900
Co1696     Co  0.99191666  0.89661022  0.71469190     1.51500
Co1697     Co  0.00386018  0.89476298  0.80042200     1.51700
Co1698     Co  0.03254289  0.85239117  0.74697153     1.51600
Co1699     Co  0.45196196  0.85103936  0.75939923     1.51500
O1700       O  0.99312753  0.87480471  0.75665664    -1.41800
C1701       C  0.42502042  0.90400653  0.71390883     1.09800
C1702       C  0.06520565  0.90806234  0.77733734     1.09900
C1703       C  0.06183878  0.90412268  0.70692110     1.09800
C1704       C  0.44020402  0.91035708  0.79841215     1.09800
C1705       C  0.35174898  0.94415200  0.83398530    -0.05000
C1706       C  0.36360857  0.95621067  0.80482679    -0.02100
C1707       C  0.39598985  0.95083072  0.79691445     0.02800
C1708       C  0.41427878  0.92828076  0.81443600    -0.05000
C1709       C  0.40365694  0.91817399  0.84482832    -0.02100
C1710       C  0.37341925  0.92787929  0.85556214     0.02800
C1711       C  0.34280806  0.97745269  0.78659996     0.37500
C1712       C  0.42548398  0.90213624  0.86730390     0.37500
C1713       C  0.36672011  0.92381386  0.88969997     0.35900
C1714       C  0.41417918  0.97429762  0.77988360     0.35900
N1715       N  0.36353615  0.92114266  0.91737292    -0.38900
N1716       N  0.43162698  0.99313998  0.76989306    -0.38900
N1717       N  0.44178977  0.89091909  0.88738948    -0.38400
N1718       N  0.32297948  0.99442396  0.77640154    -0.38400
C1719       C  0.09715666  0.92175711  0.78737523    -0.05000
C1720       C  0.09930895  0.95205333  0.80222003    -0.02100
C1721       C  0.12773794  0.96049531  0.81886495     0.02800
C1722       C  0.15718603  0.94421411  0.81282104    -0.05000
C1723       C  0.15584191  0.91493511  0.79587390    -0.02100
C1724       C  0.12570931  0.90204320  0.78697310     0.02800
C1725       C  0.07124606  0.97257060  0.80516063     0.37500
C1726       C  0.18453971  0.89525350  0.79256894     0.37500
C1727       C  0.12431946  0.86723712  0.78345969     0.35900
C1728       C  0.12392908  0.97912503  0.84806039     0.35900
N1729       N  0.12329459  0.83941781  0.78183219    -0.38900
N1730       N  0.11911002  0.49394951  0.87701354    -0.38900
N1731       N  0.20690720  0.87898740  0.78980732    -0.38400
N1732       N  0.04884477  0.98879672  0.80774268    -0.38400
C1733       C  0.34865790  0.54338215  0.82608441    -0.05000
C1734       C  0.38036209  0.53428012  0.83649659    -0.02100
C1735       C  0.40765768  0.54623648  0.82044719     0.02800
C1736       C  0.40427507  0.57066738  0.79660001    -0.05000
C1737       C  0.37282798  0.58226563  0.78894741    -0.02100
C1738       C  0.34561670  0.56695843  0.80103708     0.02800
C1739       C  0.38580673  0.51422082  0.86493043     0.37500
C1740       C  0.36757786  0.61198409  0.77091521     0.37500
C1741       C  0.31455560  0.57671330  0.78735644     0.35900
C1742       C  0.43949070  0.53591851  0.83121314     0.35900
N1743       N  0.29010765  0.58447601  0.77583927    -0.38900
N1744       N  0.46487136  0.52760447  0.83971208    -0.38900
N1745       N  0.36257424  0.63659772  0.75857571    -0.38400
N1746       N  0.39096380  0.49885320  0.88795158    -0.38400
C1747       C  0.15681817  0.56072352  0.81987391    -0.05000
C1748       C  0.15485979  0.57696667  0.78997874    -0.02100
C1749       C  0.12516453  0.59063102  0.77978225     0.02800
C1750       C  0.09562193  0.57885728  0.79251013    -0.05000
C1751       C  0.09803344  0.56358217  0.82296298    -0.02100
C1752       C  0.12836109  0.55984413  0.83831514     0.02800
C1753       C  0.18359690  0.58460380  0.77252796     0.37500
C1754       C  0.06961378  0.55689271  0.84121938     0.37500
C1755       C  0.13003649  0.56146854  0.87352348     0.35900
C1756       C  0.12712386  0.62214757  0.76490667     0.35900
N1757       N  0.13125109  0.56299475  0.90155660    -0.38900
N1758       N  0.12995014  0.64808914  0.75514367    -0.38900
N1759       N  0.04719693  0.55152219  0.85615334    -0.38400
N1760       N  0.20624357  0.59119020  0.75842661    -0.38400
C1761       C  0.33211024  0.92847245  0.67161722    -0.05000
C1762       C  0.34336557  0.89690264  0.66857234    -0.02100
C1763       C  0.37229714  0.88799550  0.68496256     0.02800
C1764       C  0.39340529  0.91226768  0.69772622    -0.05000
C1765       C  0.38207515  0.94390188  0.69823114    -0.02100
C1766       C  0.34993561  0.95036357  0.68984271     0.02800
C1767       C  0.32528762  0.87371658  0.64958070     0.37500
C1768       C  0.40480735  0.96901687  0.70317756     0.37500
C1769       C  0.33133162  0.97496274  0.70493755     0.35900
C1770       C  0.37801131  0.85405877  0.69050449     0.35900
N1771       N  0.31310144  0.49470438  0.71383262    -0.38900
N1772       N  0.38029276  0.82683339  0.69596382    -0.38900
N1773       N  0.42748871  0.48880978  0.70407826    -0.38400
N1774       N  0.31154841  0.85486883  0.63413457    -0.38400
C1775       C  0.09261101  0.91869660  0.69389392    -0.05000
C1776       C  0.12323063  0.90277549  0.69737035    -0.02100
C1777       C  0.15222583  0.91831376  0.68911520     0.02800
C1778       C  0.15148901  0.94771441  0.67198955    -0.05000
C1779       C  0.12043631  0.96181053  0.66506545    -0.02100
C1780       C  0.09198728  0.94841546  0.67728858     0.02800
C1781       C  0.12582367  0.86901357  0.70588489     0.37500
C1782       C  0.11655794  0.99041925  0.64493723     0.37500
C1783       C  0.06164672  0.96477253  0.67072177     0.35900
C1784       C  0.18277564  0.90300573  0.69717732     0.35900
N1785       N  0.03751196  0.97789666  0.66541904    -0.38900
N1786       N  0.20700097  0.89079378  0.70418231    -0.38900
N1787       N  0.11246733  0.01291709  0.62870832    -0.38400
N1788       N  0.12955943  0.84193841  0.71145969    -0.38400
C1789       C  0.39813527  0.58891467  0.68809255    -0.05000
C1790       C  0.39482008  0.55757894  0.67667089    -0.02100
C1791       C  0.36686195  0.54178066  0.68478402     0.02800
C1792       C  0.33776570  0.55857356  0.68031610    -0.05000
C1793       C  0.33899852  0.59250908  0.68316713    -0.02100
C1794       C  0.36929356  0.60781669  0.68791066     0.02800
C1795       C  0.42054323  0.54089632  0.66105419     0.37500
C1796       C  0.30954910  0.61089016  0.68413931     0.37500
C1797       C  0.37068676  0.64265262  0.68858328     0.35900
C1798       C  0.37089218  0.53220219  0.71801885     0.35900
N1799       N  0.37156966  0.67047995  0.68884211    -0.38900
N1800       N  0.37457421  0.02425248  0.74822850    -0.38900
N1801       N  0.28600112  0.62547805  0.68629229    -0.38400
N1802       N  0.44151109  0.02808713  0.65266589    -0.38400
C1803       C  0.09572365  0.58294075  0.70390294    -0.05000
C1804       C  0.11952645  0.60331295  0.69087673    -0.02100
C1805       C  0.15024257  0.59125962  0.68329964     0.02800
C1806       C  0.15778031  0.55850889  0.68681562    -0.05000
C1807       C  0.13677397  0.53953312  0.70490720    -0.02100
C1808       C  0.10530746  0.55089211  0.71181087     0.02800
C1809       C  0.11405226  0.63743464  0.68677478     0.37500
C1810       C  0.14944763  0.51108292  0.72106888     0.37500
C1811       C  0.08371914  0.53015358  0.72887351     0.35900
C1812       C  0.17540856  0.61322188  0.67479972     0.35900
N1813       N  0.06645587  0.51359148  0.74257090    -0.38900
N1814       N  0.19538454  0.63136659  0.66931165    -0.38900
N1815       N  0.15994160  0.98842545  0.73162372    -0.38400
N1816       N  0.11252807  0.66511222  0.68475947    -0.38400
C1817       C  0.31699727  0.85097663  0.54039686    -0.05000
C1818       C  0.33240279  0.88143597  0.53539368    -0.02100
C1819       C  0.31882982  0.91090157  0.54677772     0.02800
C1820       C  0.28739842  0.91193860  0.55863201    -0.05000
C1821       C  0.26984472  0.88294829  0.55556483    -0.02100
C1822       C  0.28571512  0.85261310  0.55223853     0.02800
C1823       C  0.36189250  0.88331830  0.51766959     0.37500
C1824       C  0.23945561  0.88563863  0.53862419     0.37500
C1825       C  0.26895544  0.82300344  0.55810354     0.35900
C1826       C  0.33722905  0.94030062  0.54559405     0.35900
N1827       N  0.25690248  0.79832446  0.56165677    -0.38900
N1828       N  0.35189642  0.96377086  0.54447013    -0.38900
N1829       N  0.21618585  0.88727889  0.52285223    -0.38400
N1830       N  0.38520538  0.88507195  0.50321181    -0.38400
C1831       C  0.29325568  0.60218274  0.56951271    -0.05000
C1832       C  0.28753991  0.63317220  0.58374080    -0.02100
C1833       C  0.30133297  0.66139113  0.57094170     0.02800
C1834       C  0.31498257  0.66073536  0.54023101    -0.05000
C1835       C  0.31243665  0.63170066  0.52264874    -0.02100
C1836       C  0.30795965  0.60218554  0.53910589     0.02800
C1837       C  0.26547050  0.63742035  0.60974258     0.37500
C1838       C  0.29682880  0.63360532  0.49118313     0.37500
C1839       C  0.31547468  0.57230928  0.52294697     0.35900
C1840       C  0.30082555  0.69123277  0.58913730     0.35900
N1841       N  0.32143259  0.54826388  0.51028369    -0.38900
N1842       N  0.30048131  0.71505940  0.60358719    -0.38900
N1843       N  0.27562081  0.64134394  0.96859308    -0.38400
N1844       N  0.24720192  0.64222850  0.62973133    -0.38400
C1845       C  0.29773939  0.89515444  0.91987504    -0.05000
C1846       C  0.28875142  0.88600716  0.95123768    -0.02100
C1847       C  0.29324957  0.85376423  0.96146803     0.02800
C1848       C  0.31260833  0.83301950  0.94371217    -0.05000
C1849       C  0.31880542  0.84051721  0.91144207    -0.02100
C1850       C  0.31013624  0.87085623  0.89891915     0.02800
C1851       C  0.27309308  0.90928297  0.97151178     0.37500
C1852       C  0.33155405  0.81597503  0.89034969     0.37500
C1853       C  0.31342788  0.87588001  0.86423007     0.35900
C1854       C  0.27022763  0.83871609  0.98186476     0.35900
N1855       N  0.31542821  0.87847802  0.83640162    -0.38900
N1856       N  0.24590737  0.82459171  0.49173492    -0.38900
N1857       N  0.34069803  0.79666036  0.87262753    -0.38400
N1858       N  0.26118312  0.92948561  0.98635447    -0.38400
C1859       C  0.31264375  0.60107566  0.90629827    -0.05000
C1860       C  0.33424982  0.59733664  0.93315069    -0.02100
C1861       C  0.34510805  0.62443015  0.95030439     0.02800
C1862       C  0.33583128  0.65590753  0.93991903    -0.05000
C1863       C  0.31853431  0.65971211  0.91034757    -0.02100
C1864       C  0.30810020  0.63238010  0.89295814     0.02800
C1865       C  0.34713648  0.56592340  0.94241275     0.37500
C1866       C  0.31224144  0.69164174  0.89721166     0.37500
C1867       C  0.29626429  0.63667792  0.85990101     0.35900
C1868       C  0.36316877  0.61932860  0.98060609     0.35900
N1869       N  0.28800441  0.64041008  0.83314561    -0.38900
N1870       N  0.38517026  0.61353436  0.50217023    -0.38900
N1871       N  0.30714793  0.71708795  0.88670723    -0.38400
N1872       N  0.35781482  0.54110199  0.94987100    -0.38400
C1873       C  0.46505723  0.81633197  0.85184312    -0.05000
C1874       C  0.47501785  0.82742632  0.88324068    -0.02100
C1875       C  0.45851865  0.81811906  0.91119045     0.02800
C1876       C  0.43380182  0.79540122  0.90885395    -0.05000
C1877       C  0.42579103  0.78215095  0.87774851    -0.02100
C1878       C  0.44091288  0.79293724  0.84959519     0.02800
C1879       C  0.49943930  0.85187000  0.88701857     0.37500
C1880       C  0.40204632  0.75703140  0.87378374     0.37500
C1881       C  0.42979807  0.78123893  0.81809775     0.35900
C1882       C  0.46567119  0.83366941  0.94199499     0.35900
N1883       N  0.42089815  0.77183727  0.79307867    -0.38900
N1884       N  0.47109737  0.84646706  0.96638123    -0.38900
N1885       N  0.38348862  0.73691376  0.86914137    -0.38400
N1886       N  0.51700360  0.87299737  0.89068119    -0.38400
C1887       C  0.44596768  0.82238218  0.66100849    -0.05000
C1888       C  0.43187635  0.79188999  0.65922083    -0.02100
C1889       C  0.41717432  0.78191546  0.62962586     0.02800
C1890       C  0.42402890  0.79786059  0.59963344    -0.05000
C1891       C  0.43832741  0.82814075  0.60150953    -0.02100
C1892       C  0.44416869  0.84196471  0.63214579     0.02800
C1893       C  0.42851739  0.77269269  0.68841266     0.37500
C1894       C  0.44160531  0.84754360  0.57239884     0.37500
C1895       C  0.44122202  0.87683982  0.63372889     0.35900
C1896       C  0.39267025  0.75753812  0.63155320     0.35900
N1897       N  0.43819367  0.90454999  0.63463247    -0.38900
N1898       N  0.37281896  0.73855814  0.63455255    -0.38900
N1899       N  0.44414698  0.86317458  0.54935068    -0.38400
N1900       N  0.42586165  0.75727620  0.71159932    -0.38400
C1901       C  0.45519193  0.67543617  0.85458813    -0.05000
C1902       C  0.43798269  0.65712094  0.87745522    -0.02100
C1903       C  0.43546324  0.66728159  0.90984073     0.02800
C1904       C  0.44465544  0.69819268  0.91935635    -0.05000
C1905       C  0.46356475  0.71576002  0.89806995    -0.02100
C1906       C  0.46807633  0.70510095  0.86546491     0.02800
C1907       C  0.42055311  0.62856717  0.86795555     0.37500
C1908       C  0.48181038  0.74172350  0.91216652     0.37500
C1909       C  0.48418863  0.72521027  0.84267544     0.35900
C1910       C  0.42884913  0.64389627  0.93466437     0.35900
N1911       N  0.49601392  0.74129162  0.82356036    -0.38900
N1912       N  0.42612480  0.62415861  0.95417143    -0.38900
N1913       N  0.49726125  0.76103447  0.92513272    -0.38400
N1914       N  0.40556747  0.60606336  0.86174794    -0.38400
C1915       C  0.42988935  0.70450130  0.59689702    -0.05000
C1916       C  0.42003749  0.67531479  0.61017588    -0.02100
C1917       C  0.43621717  0.66289864  0.63754275     0.02800
C1918       C  0.45414713  0.68350995  0.65900768    -0.05000
C1919       C  0.46505376  0.71250620  0.64521333    -0.02100
C1920       C  0.45587209  0.72069648  0.61254669     0.02800
C1921       C  0.39649505  0.65536084  0.59339724     0.37500
C1922       C  0.48628369  0.73326862  0.66356083     0.37500
C1923       C  0.47385215  0.74449175  0.59509577     0.35900
C1924       C  0.44123513  0.62837554  0.63683970     0.35900
N1925       N  0.48881124  0.76311350  0.58123093    -0.38900
N1926       N  0.44666387  0.60126607  0.63362818    -0.38900
N1927       N  0.50209259  0.75116804  0.67808965    -0.38400
N1928       N  0.37816515  0.63845140  0.58084767    -0.38400
C1929       C  0.20782077  0.89903299  0.92630659    -0.05000
C1930       C  0.18839306  0.90126291  0.95364015    -0.02100
C1931       C  0.17283826  0.87361998  0.96546027     0.02800
C1932       C  0.18191593  0.84182002  0.95600494    -0.05000
C1933       C  0.20398257  0.83921186  0.93090732    -0.02100
C1934       C  0.21466693  0.86721532  0.91450730     0.02800
C1935       C  0.18181241  0.93228628  0.96838007     0.37500
C1936       C  0.21269386  0.80756322  0.91913327     0.37500
C1937       C  0.23002019  0.86224731  0.88376572     0.35900
C1938       C  0.14379690  0.87963496  0.98261271     0.35900
N1939       N  0.24114303  0.85762614  0.85878464    -0.38900
N1940       N  0.11975176  0.88697901  0.99371509    -0.38900
N1941       N  0.21966741  0.78237254  0.90959475    -0.38400
N1942       N  0.17661830  0.95674932  0.98063471    -0.38400
C1943       C  0.18395466  0.66127497  0.94707503    -0.05000
C1944       C  0.20430889  0.65906079  0.92046453    -0.02100
C1945       C  0.21153873  0.62880749  0.90654695     0.02800
C1946       C  0.20653715  0.59899539  0.92346234    -0.05000
C1947       C  0.18706119  0.60085395  0.95086420    -0.02100
C1948       C  0.17438595  0.63112259  0.96131136     0.02800
C1949       C  0.21688734  0.68787602  0.90574651     0.37500
C1950       C  0.17736994  0.57136553  0.96674719     0.37500
C1951       C  0.14975865  0.62958878  0.98540276     0.35900
C1952       C  0.21762846  0.62930882  0.87204719     0.35900
N1953       N  0.13000691  0.62619857  0.00423690    -0.38900
N1954       N  0.22065511  0.62981568  0.84424632    -0.38900
N1955       N  0.16946017  0.54806163  0.97967487    -0.38400
N1956       N  0.22733430  0.71059298  0.89378059    -0.38400
C1957       C  0.18965581  0.91042438  0.58337630    -0.05000
C1958       C  0.15979096  0.91019775  0.56690750    -0.02100
C1959       C  0.14456581  0.88053479  0.56087464     0.02800
C1960       C  0.16233179  0.85110055  0.56321324    -0.05000
C1961       C  0.18866204  0.85074043  0.58494098    -0.02100
C1962       C  0.20098177  0.88012118  0.59684133     0.02800
C1963       C  0.14338825  0.94013018  0.55863012     0.37500
C1964       C  0.20023760  0.82040063  0.59854322     0.37500
C1965       C  0.22536677  0.87788540  0.62242279     0.35900
C1966       C  0.10985469  0.88040006  0.55897292     0.35900
N1967       N  0.24438118  0.87515931  0.64315736    -0.38900
N1968       N  0.08215082  0.88112926  0.55795646    -0.38900
N1969       N  0.20869629  0.79639476  0.61037103    -0.38400
N1970       N  0.13032669  0.96399441  0.55190896    -0.38400
C1971       C  0.18936087  0.66760372  0.55720197    -0.05000
C1972       C  0.17395671  0.65219203  0.58257500    -0.02100
C1973       C  0.17363182  0.61870244  0.58449790     0.02800
C1974       C  0.19612861  0.60033176  0.56766045    -0.05000
C1975       C  0.21426486  0.61573723  0.54380487    -0.02100
C1976       C  0.21073183  0.64953895  0.53853170     0.02800
C1977       C  0.16026316  0.67105268  0.60804488     0.37500
C1978       C  0.23262246  0.59595698  0.52235123     0.37500
C1979       C  0.22952574  0.66681251  0.51543180     0.35900
C1980       C  0.14804950  0.60295541  0.60128184     0.35900
N1981       N  0.24370300  0.68256927  0.49771317    -0.38900
N1982       N  0.12656088  0.59066883  0.61324519    -0.38900
N1983       N  0.24591883  0.57909953  0.50484256    -0.38400
N1984       N  0.15122816  0.68585610  0.62965178    -0.38400
C1985       C  0.07578072  0.79336246  0.90371643    -0.05000
C1986       C  0.06836706  0.77397684  0.87673545    -0.02100
C1987       C  0.06491205  0.78710727  0.84513242     0.02800
C1988       C  0.06513919  0.82065102  0.84065262    -0.05000
C1989       C  0.07439612  0.84010659  0.86779100    -0.02100
C1990       C  0.07725536  0.82669887  0.89919214     0.02800
C1991       C  0.05522098  0.74308586  0.88295775     0.37500
C1992       C  0.08137780  0.87411813  0.86410678     0.37500
C1993       C  0.07674433  0.84744050  0.92728982     0.35900
C1994       C  0.06227995  0.76611860  0.81730540     0.35900
N1995       N  0.07402452  0.86392443  0.94960276    -0.39500
N1996       N  0.06080203  0.74975876  0.79464017    -0.38900
N1997       N  0.08687722  0.90128283  0.86219823    -0.38400
N1998       N  0.04160992  0.71985423  0.88864790    -0.38400
C1999       C  0.03467575  0.83116038  0.64622483    -0.05000
C2000       C  0.02471828  0.84235873  0.61445126    -0.02100
C2001       C  0.03548959  0.82579889  0.58641536     0.02800
C2002       C  0.06261034  0.80555088  0.58968931    -0.05000
C2003       C  0.07816527  0.80515511  0.62061207    -0.02100
C2004       C  0.06063654  0.80959231  0.64815717     0.02800
C2005       C  0.01036938  0.87389488  0.60961829     0.37500
C2006       C  0.11174135  0.81333396  0.62439367     0.37500
C2007       C  0.07445066  0.79804054  0.67873026     0.35900
C2008       C  0.02271355  0.83382030  0.55441872     0.35900
N2009       N  0.08533182  0.78894412  0.70320776    -0.38900
N2010       N  0.01295616  0.84038146  0.52869289    -0.38900
N2011       N  0.13806693  0.82035851  0.62952414    -0.38400
N2012       N  0.50142015  0.90158251  0.60405902    -0.38400
C2013       C  0.08379476  0.67328147  0.92041755    -0.05000
C2014       C  0.09852349  0.68184269  0.89040772    -0.02100
C2015       C  0.08416445  0.67361497  0.86022049     0.02800
C2016       C  0.05539373  0.65663936  0.85910026    -0.05000
C2017       C  0.04348500  0.64381826  0.88859598    -0.02100
C2018       C  0.05754927  0.65217565  0.91893965     0.02800
C2019       C  0.12614492  0.70254987  0.88859049     0.37500
C2020       C  0.01668637  0.62177283  0.88833199     0.37500
C2021       C  0.04414923  0.63954697  0.94842903     0.35900
C2022       C  0.09826805  0.68434001  0.83020037     0.35900
N2023       N  0.03332703  0.62891823  0.97164849    -0.38900
N2024       N  0.10959362  0.69350656  0.80662049    -0.38900
N2025       N  0.49394697  0.60452720  0.88865647    -0.38400
N2026       N  0.14700113  0.71973795  0.88318845    -0.38400
C2027       C  0.07072826  0.69097505  0.59178950    -0.05000
C2028       C  0.07327695  0.70562206  0.62277381    -0.02100
C2029       C  0.05733731  0.69299099  0.64933358     0.02800
C2030       C  0.04301210  0.66228499  0.64726819    -0.05000
C2031       C  0.04141042  0.64667688  0.61656182    -0.02100
C2032       C  0.05414174  0.66156888  0.58882123     0.02800
C2033       C  0.09671647  0.73023024  0.62973732     0.37500
C2034       C  0.02843145  0.61450978  0.61331220     0.37500
C2035       C  0.05290745  0.64480833  0.55798498     0.35900
C2036       C  0.05913779  0.71062057  0.67981919     0.35900
N2037       N  0.05195720  0.63122737  0.53352564    -0.38900
N2038       N  0.06114417  0.72374239  0.70449462    -0.38900
N2039       N  0.01840719  0.58873460  0.61057587    -0.38400
N2040       N  0.11739695  0.74718140  0.63720900    -0.38400
O2041       O  0.57195470  0.22074441  0.03322324    -0.79800
O2042       O  0.57675023  0.27644214  0.46235907    -0.79800
O2043       O  0.60787183  0.28495408  0.06992948    -0.79900
O2044       O  0.63261491  0.22114016  0.43182320    -0.79800
O2045       O  0.56955351  0.29185365  0.03240372    -0.79900
O2046       O  0.59063480  0.20226570  0.45718434    -0.79800
O2047       O  0.61995018  0.26806296  0.43308515    -0.79800
O2048       O  0.61050615  0.22273703  0.07026442    -0.79900
C2049       C  0.58111059  0.21947736  0.06330620     1.09900
C2050       C  0.59032876  0.27559797  0.43507877     1.09700
C2051       C  0.58019967  0.29505380  0.06160310     1.09900
C2052       C  0.60767437  0.20384958  0.43167122     1.09800
O2053       O  0.63792662  0.17631373  0.48203379    -0.79800
O2054       O  0.62736760  0.32478903  0.03081224    -0.79900
O2055       O  0.67215596  0.21930784  0.04503361    -0.79800
O2056       O  0.67740563  0.28646174  0.46443193    -0.79800
O2057       O  0.63304743  0.31630224  0.46696194    -0.79900
O2058       O  0.63189632  0.18650373  0.03242490    -0.79800
O2059       O  0.67755581  0.20766142  0.46698645    -0.79800
O2060       O  0.66844301  0.29349099  0.04631937    -0.79900
Co2061     Co  0.60772369  0.21386558  0.00098586     1.51500
Co2062     Co  0.60141491  0.29720963  0.49811642     1.51700
Co2063     Co  0.64047158  0.25532412  0.05447368     1.51600
Co2064     Co  0.64977539  0.24865343  0.46711540     1.51500
O2065       O  0.62374755  0.25756379  0.00834303    -1.41800
C2066       C  0.66539756  0.17919909  0.46946945     1.09800
C2067       C  0.65394588  0.32105793  0.04592833     1.09900
C2068       C  0.66002384  0.19079729  0.04415660     1.09800
C2069       C  0.66295396  0.31357273  0.46145527     1.09800
O2070       O  0.87946604  0.22245569  0.06774243    -0.79800
O2071       O  0.87861139  0.28284667  0.42863704    -0.79800
O2072       O  0.93241992  0.22145518  0.46983366    -0.79900
O2073       O  0.92238249  0.28879664  0.03741032    -0.79800
O2074       O  0.89514623  0.22271681  0.43077211    -0.79900
O2075       O  0.87908970  0.28405481  0.06701752    -0.79800
O2076       O  0.91997117  0.28744893  0.46163889    -0.79800
O2077       O  0.92332903  0.22277325  0.03967617    -0.79900
C2078       C  0.90978950  0.21864150  0.06634174     1.09900
C2079       C  0.90771130  0.28873151  0.43280964     1.09700
C2080       C  0.92438537  0.21849106  0.43988037     1.09900
C2081       C  0.90849229  0.29049690  0.06501480     1.09800
O2082       O  0.82273176  0.29269610  0.02769200    -0.79800
O2083       O  0.83329998  0.20673970  0.45852869    -0.79900
O2084       O  0.86278931  0.18510597  0.02830557    -0.79800
O2085       O  0.85485008  0.31511446  0.46732536    -0.79800
O2086       O  0.82081634  0.27427816  0.46116166    -0.79900
O2087       O  0.82171803  0.21932614  0.02647720    -0.79800
O2088       O  0.86526637  0.32297407  0.02715568    -0.79800
O2089       O  0.87850911  0.18102775  0.46478502    -0.79900
Co2090     Co  0.85104665  0.25417359  0.04237001     1.51500
Co2091     Co  0.85694292  0.24670750  0.44934759     1.51700
Co2092     Co  0.89795203  0.20641894  0.00225687     1.51600
Co2093     Co  0.89035122  0.29859038  0.49803801     1.51500
O2094       O  0.87526628  0.25175419  0.99821910    -1.41800
C2095       C  0.83549496  0.32090348  0.03039418     1.09800
C2096       C  0.84999735  0.18155954  0.45449472     1.09900
C2097       C  0.83262362  0.19059325  0.03012197     1.09800
C2098       C  0.82710342  0.30406692  0.45917371     1.09800
O2099       O  0.71127465  0.03944589  0.17264621    -0.79800
O2100       O  0.77454619  0.43370311  0.16726016    -0.79800
O2101       O  0.67764206  0.47631770  0.13351213    -0.79900
O2102       O  0.81499768  0.03124455  0.13745818    -0.79800
O2103       O  0.71234178  0.45803021  0.17012230    -0.79900
O2104       O  0.78042126  0.03912593  0.17628191    -0.79800
O2105       O  0.80739356  0.46394787  0.13695340    -0.79800
O2106       O  0.67771566  0.03869648  0.13093584    -0.79900
C2107       C  0.68337510  0.04424902  0.16077308     1.09900
C2108       C  0.80233249  0.44038871  0.15731153     1.09700
C2109       C  0.68328828  0.46119486  0.15941969     1.09900
C2110       C  0.80904087  0.04028599  0.16609709     1.09800
O2111       O  0.77970361  0.07372865  0.11801129    -0.79800
O2112       O  0.72769677  0.43855727  0.11743088    -0.79900
O2113       O  0.70985931  0.03832927  0.07008571    -0.79800
O2114       O  0.78135475  0.47086196  0.07039226    -0.79800
O2115       O  0.76495122  0.43646031  0.10671205    -0.79900
O2116       O  0.71735178  0.07345496  0.11030618    -0.79800
O2117       O  0.78410416  0.04359057  0.07501283    -0.79800
O2118       O  0.70592350  0.46619918  0.07633205    -0.79900
Co2119     Co  0.74660174  0.05237946  0.14376477     1.51500
Co2120     Co  0.75384845  0.46772796  0.14563458     1.51700
Co2121     Co  0.69774872  0.00517669  0.10266589     1.51600
Co2122     Co  0.79205183  0.00380143  0.10422047     1.51500
O2123       O  0.74473210  0.00781310  0.12159539    -1.41800
C2124       C  0.78515447  0.07169164  0.08826614     1.09800
C2125       C  0.70859759  0.43982738  0.09278114     1.09900
C2126       C  0.70928069  0.06718562  0.08090060     1.09800
C2127       C  0.77719854  0.44162701  0.07887440     1.09800
O2128       O  0.68517511  0.02849253  0.35953491    -0.79800
O2129       O  0.82736680  0.47498497  0.37679061    -0.79800
O2130       O  0.79310379  0.03263851  0.32845109    -0.79900
O2131       O  0.72206451  0.45039641  0.31628449    -0.79800
O2132       O  0.82217650  0.01204738  0.37042607    -0.79900
O2133       O  0.68973356  0.46252341  0.35658286    -0.79800
O2134       O  0.80309300  0.44934886  0.33458692    -0.79800
O2135       O  0.71572700  0.04247786  0.31905684    -0.79900
C2136       C  0.68825856  0.04180701  0.33201543     1.09900
C2137       C  0.82858933  0.45548988  0.35205099     1.09700
C2138       C  0.82032967  0.02786663  0.34283921     1.09900
C2139       C  0.69378667  0.45191671  0.32793109     1.09800
O2140       O  0.72019711  0.45681099  0.41859612    -0.79800
O2141       O  0.79728979  0.04302362  0.40767314    -0.79900
O2142       O  0.73016926  0.06440581  0.38243466    -0.79800
O2143       O  0.77837593  0.41824264  0.37113965    -0.79800
O2144       O  0.79332546  0.44589718  0.41484190    -0.79900
O2145       O  0.71522613  0.03107681  0.42096860    -0.79800
O2146       O  0.73129462  0.42521972  0.37722390    -0.79800
O2147       O  0.77754251  0.07206659  0.36675812    -0.79900
Co2148     Co  0.70515953  0.99530340  0.38894622     1.51500
Co2149     Co  0.78948410  0.99494683  0.40428966     1.51700
Co2150     Co  0.75184663  0.03609473  0.35077593     1.51600
Co2151     Co  0.75735343  0.45441473  0.34996496     1.51500
O2152       O  0.75080132  0.99576963  0.37326815    -1.41800
C2153       C  0.72101670  0.42863596  0.40577615     1.09800
C2154       C  0.79504782  0.06972318  0.39220084     1.09900
C2155       C  0.71771293  0.06002382  0.40986025     1.09800
C2156       C  0.79060235  0.41930003  0.39944538     1.09800
O2157       O  0.53300213  0.17487689  0.20797457    -0.79800
O2158       O  0.96610358  0.17724203  0.29160478    -0.79800
O2159       O  0.97258610  0.13759364  0.18438877    -0.79900
O2160       O  0.53527692  0.13074722  0.31474793    -0.79800
O2161       O  0.96251578  0.17944695  0.21624709    -0.79900
O2162       O  0.54572763  0.17530496  0.28786511    -0.79800
O2163       O  0.97178066  0.13359117  0.32250901    -0.79800
O2164       O  0.51131211  0.13549525  0.17765987    -0.79900
C2165       C  0.52721883  0.16258512  0.17989100     1.09900
C2166       C  0.96589237  0.16365381  0.31976415     1.09700
C2167       C  0.96289648  0.16640027  0.18772763     1.09900
C2168       C  0.54827498  0.15801024  0.31367878     1.09800
O2169       O  0.56739317  0.11859046  0.26683865    -0.79800
O2170       O  0.92621262  0.12378786  0.22058899    -0.79900
O2171       O  0.54140373  0.09113621  0.20296882    -0.79800
O2172       O  0.96319382  0.07601013  0.28566099    -0.79800
O2173       O  0.93092186  0.11883982  0.28448071    -0.79900
O2174       O  0.56968031  0.13230864  0.22039711    -0.79800
O2175       O  0.53778906  0.07603460  0.27783397    -0.79800
O2176       O  0.95385571  0.08116704  0.20414784    -0.79900
Co2177     Co  0.53524910  0.14916321  0.24837825     1.51500
Co2178     Co  0.95028552  0.14982616  0.25368075     1.51700
Co2179     Co  0.49439640  0.10029228  0.21005746     1.51600
Co2180     Co  0.00045519  0.10446876  0.29788754     1.51500
O2181       O  0.99349428  0.12678079  0.25471837    -1.41800
C2182       C  0.56564032  0.08959850  0.27593567     1.09800
C2183       C  0.92739470  0.09732742  0.20532651     1.09900
C2184       C  0.56793942  0.10581219  0.20523461     1.09800
C2185       C  0.93513445  0.08862465  0.28858360     1.09800
O2186       O  0.50841905  0.38412535  0.17222029    -0.79800
O2187       O  0.98673639  0.35549180  0.31775904    -0.79800
O2188       O  0.54418096  0.32301059  0.29096211    -0.79900
O2189       O  0.96025254  0.33560316  0.21393682    -0.79800
O2190       O  0.54472586  0.36654329  0.32012770    -0.79900
O2191       O  0.96958350  0.37612705  0.18165529    -0.79800
O2192       O  0.95135806  0.33182774  0.28574724    -0.79800
O2193       O  0.53272536  0.34569183  0.19879307    -0.79900
C2194       C  0.52533623  0.35879676  0.17183504     1.09900
C2195       C  0.96455391  0.33556792  0.31381858     1.09700
C2196       C  0.55211187  0.33755085  0.31669918     1.09900
C2197       C  0.95796360  0.34833146  0.18537035     1.09800
O2198       O  0.94462648  0.41076855  0.21575767    -0.79800
O2199       O  0.54365787  0.41803348  0.28095320    -0.79900
O2200       O  0.56751910  0.37287031  0.22475824    -0.79800
O2201       O  0.94414716  0.39766614  0.28699659    -0.79800
O2202       O  0.98421287  0.41968850  0.31557612    -0.79900
O2203       O  0.53792813  0.41634317  0.21000180    -0.79800
O2204       O  0.91476642  0.37026154  0.23825632    -0.79800
O2205       O  0.56968192  0.37413128  0.26338372    -0.79900
Co2206     Co  0.49400649  0.39609221  0.21631825     1.51500
Co2207     Co  0.50955766  0.39253939  0.30094012     1.51700
Co2208     Co  0.53608644  0.34080181  0.24658503     1.51600
Co2209     Co  0.95608396  0.36632513  0.25214486     1.51500
O2210       O  0.49941629  0.37067024  0.25703938    -1.41800
C2211       C  0.91713871  0.39519827  0.22015822     1.09800
C2212       C  0.57019013  0.40257032  0.27684132     1.09900
C2213       C  0.56514541  0.40093728  0.21021870     1.09800
C2214       C  0.95413910  0.41661518  0.30919979     1.09800
C2215       C  0.86178512  0.44472886  0.34216310    -0.05000
C2216       C  0.87379708  0.45565468  0.31267478    -0.02100
C2217       C  0.90684475  0.45284304  0.30591818     0.02800
C2218       C  0.92774364  0.43465770  0.32595817    -0.05000
C2219       C  0.91662942  0.42562078  0.35674630    -0.02100
C2220       C  0.88392343  0.43048299  0.36478569     0.02800
C2221       C  0.85141357  0.47203819  0.29155326     0.37500
C2222       C  0.93945872  0.41822758  0.38256080     0.37500
C2223       C  0.87367554  0.42165259  0.39691333     0.35900
C2224       C  0.92221881  0.47412520  0.28372063     0.35900
N2225       N  0.86658556  0.41451469  0.42289313    -0.38900
N2226       N  0.93746790  0.49192955  0.26918325    -0.38900
N2227       N  0.95608517  0.41474201  0.40517971    -0.38400
N2228       N  0.82990926  0.48502446  0.27910478    -0.38400
C2229       C  0.60271138  0.41621486  0.28652895    -0.05000
C2230       C  0.60550347  0.44758717  0.29902911    -0.02100
C2231       C  0.63394444  0.45680357  0.31541365     0.02800
C2232       C  0.66355052  0.44031041  0.31052451    -0.05000
C2233       C  0.66159288  0.40977088  0.29561748    -0.02100
C2234       C  0.63104815  0.39640895  0.28773303     0.02800
C2235       C  0.57810822  0.46924254  0.29956783     0.37500
C2236       C  0.69015220  0.39006214  0.29241488     0.37500
C2237       C  0.62873651  0.36157975  0.28644340     0.35900
C2238       C  0.62964626  0.47632073  0.34389996     0.35900
N2239       N  0.62691867  0.33376277  0.28636637    -0.38900
N2240       N  0.62133398  0.98983501  0.36853440    -0.38900
N2241       N  0.71248085  0.37382317  0.28929228    -0.38400
N2242       N  0.55628427  0.48649816  0.30033212    -0.38400
C2243       C  0.85047650  0.04140355  0.32788563    -0.05000
C2244       C  0.88210897  0.03254733  0.33870869    -0.02100
C2245       C  0.90960605  0.04511129  0.32344469     0.02800
C2246       C  0.90642881  0.07026709  0.30026781    -0.05000
C2247       C  0.87489579  0.08166429  0.29243682    -0.02100
C2248       C  0.84762247  0.06562176  0.30347132     0.02800
C2249       C  0.88732189  0.01195844  0.36684972     0.37500
C2250       C  0.86940337  0.11198744  0.27545841     0.37500
C2251       C  0.81668822  0.07532463  0.28959939     0.35900
C2252       C  0.94125568  0.03427026  0.33409402     0.35900
N2253       N  0.79222480  0.08305522  0.27799585    -0.38900
N2254       N  0.96650225  0.02537751  0.34255441    -0.38900
N2255       N  0.86435754  0.13695807  0.26398669    -0.38400
N2256       N  0.89234341  0.99624149  0.38960085    -0.38400
C2257       C  0.65804474  0.05650461  0.31710369    -0.05000
C2258       C  0.65681126  0.07218782  0.28683319    -0.02100
C2259       C  0.62741262  0.08586358  0.27544439     0.02800
C2260       C  0.59732089  0.07530958  0.28801811    -0.05000
C2261       C  0.59907765  0.05993060  0.31851408    -0.02100
C2262       C  0.62908576  0.05600521  0.33469302     0.02800
C2263       C  0.68602484  0.07896047  0.26980221     0.37500
C2264       C  0.57025027  0.05219290  0.33561576     0.37500
C2265       C  0.62996391  0.05732327  0.36992045     0.35900
C2266       C  0.63014868  0.11595563  0.25797871     0.35900
N2267       N  0.63064240  0.05857820  0.39797501    -0.38900
N2268       N  0.63387236  0.14087739  0.24610724    -0.38900
N2269       N  0.54754243  0.04535646  0.34946729    -0.38400
N2270       N  0.70904262  0.08488861  0.25601235    -0.38400
C2271       C  0.83009620  0.42583725  0.17342166    -0.05000
C2272       C  0.83975437  0.39374566  0.16977373    -0.02100
C2273       C  0.86642628  0.38261612  0.18819634     0.02800
C2274       C  0.88728589  0.40537453  0.20336125    -0.05000
C2275       C  0.87821230  0.43771375  0.20387145    -0.02100
C2276       C  0.84735216  0.44624331  0.19375062     0.02800
C2277       C  0.82319833  0.37255205  0.14729769     0.37500
C2278       C  0.90252519  0.46161840  0.20672346     0.37500
C2279       C  0.82960440  0.47190883  0.20845059     0.35900
C2280       C  0.87093616  0.34825007  0.19212660     0.35900
N2281       N  0.81401026  0.99185253  0.21543653    -0.38900
N2282       N  0.87250701  0.32070367  0.19601324    -0.38900
N2283       N  0.92932206  0.98841298  0.20526510    -0.38400
N2284       N  0.81118207  0.35505803  0.12901853    -0.38400
C2285       C  0.59575705  0.41592118  0.19714547    -0.05000
C2286       C  0.62677373  0.40102933  0.20108498    -0.02100
C2287       C  0.65534839  0.41723134  0.19240773     0.02800
C2288       C  0.65377371  0.44627601  0.17457746    -0.05000
C2289       C  0.62240861  0.45915484  0.16724472    -0.02100
C2290       C  0.59430169  0.44502092  0.17934569     0.02800
C2291       C  0.63015523  0.36740146  0.20990465     0.37500
C2292       C  0.61782513  0.48716943  0.14649995     0.37500
C2293       C  0.56350627  0.45966806  0.17090202     0.35900
C2294       C  0.68630647  0.40285709  0.20049843     0.35900
N2295       N  0.53904339  0.47143170  0.16390651    -0.38900
N2296       N  0.71091156  0.39137724  0.20744714    -0.38900
N2297       N  0.61306977  0.50906574  0.12969122    -0.38400
N2298       N  0.63458802  0.34046221  0.21562727    -0.38400
C2299       C  0.89622125  0.08688466  0.18943105    -0.05000
C2300       C  0.89260209  0.05562957  0.17769359    -0.02100
C2301       C  0.86560819  0.03931090  0.18765318     0.02800
C2302       C  0.83609888  0.05562381  0.18482122    -0.05000
C2303       C  0.83687298  0.08923874  0.18986720    -0.02100
C2304       C  0.86708061  0.10509727  0.19230416     0.02800
C2305       C  0.91760050  0.03909895  0.16083155     0.37500
C2306       C  0.80750881  0.10606657  0.19700996     0.37500
C2307       C  0.86771958  0.13994021  0.19328212     0.35900
C2308       C  0.87195130  0.03045399  0.22088799     0.35900
N2309       N  0.86797370  0.16778730  0.19361530    -0.38900
N2310       N  0.87711814  0.51873832  0.24943342    -0.38900
N2311       N  0.78421029  0.11893927  0.20459911    -0.38400
N2312       N  0.94416470  0.52706492  0.16337005    -0.38400
C2313       C  0.59810888  0.09001336  0.19406593    -0.05000
C2314       C  0.62240171  0.10842679  0.17974906    -0.02100
C2315       C  0.65178033  0.09400854  0.17161409     0.02800
C2316       C  0.65812117  0.06142394  0.17892250    -0.05000
C2317       C  0.63598084  0.04436480  0.19731499    -0.02100
C2318       C  0.60516875  0.05748944  0.20251009     0.02800
C2319       C  0.61841373  0.14267898  0.17465342     0.37500
C2320       C  0.64609427  0.01519728  0.21403729     0.37500
C2321       C  0.58132355  0.03755294  0.21747977     0.35900
C2322       C  0.67625210  0.11348417  0.15718045     0.35900
N2323       N  0.56220413  0.02147248  0.22906220    -0.38900
N2324       N  0.69521983  0.12998580  0.14600993    -0.38900
N2325       N  0.66064192  0.48958941  0.23293339    -0.38400
N2326       N  0.61735468  0.17027108  0.17124057    -0.38400
C2327       C  0.81835242  0.35266507  0.03859804    -0.05000
C2328       C  0.83320275  0.38323949  0.03312121    -0.02100
C2329       C  0.82022511  0.41227606  0.04607263     0.02800
C2330       C  0.78922450  0.41282797  0.05909331    -0.05000
C2331       C  0.77193666  0.38367996  0.05667392    -0.02100
C2332       C  0.78804056  0.35372920  0.05265153     0.02800
C2333       C  0.86109629  0.38567144  0.01305468     0.37500
C2334       C  0.74128930  0.38584729  0.04027321     0.37500
C2335       C  0.77226943  0.32391103  0.06002074     0.35900
C2336       C  0.83892809  0.44149297  0.04571714     0.35900
N2337       N  0.76118685  0.29896964  0.06473026    -0.38900
N2338       N  0.85398446  0.46474980  0.04548447    -0.38900
N2339       N  0.71779321  0.38704703  0.02485446    -0.38400
N2340       N  0.88296178  0.38789575  0.99653910    -0.38400
C2341       C  0.79364347  0.10345935  0.07158025    -0.05000
C2342       C  0.79159063  0.13371807  0.08848279    -0.02100
C2343       C  0.80365231  0.16249644  0.07491103     0.02800
C2344       C  0.81206323  0.16353418  0.04224663    -0.05000
C2345       C  0.80639837  0.13558771  0.02372090    -0.02100
C2346       C  0.80307372  0.10514965  0.03903318     0.02800
C2347       C  0.77589321  0.13679325  0.11913150     0.37500
C2348       C  0.79031175  0.13990850  0.99271217     0.37500
C2349       C  0.80764397  0.07598859  0.02062797     0.35900
C2350       C  0.80668561  0.19139497  0.09441991     0.35900
N2351       N  0.81093817  0.05221588  0.00652432    -0.38900
N2352       N  0.80902988  0.21447729  0.10990134    -0.38900
N2353       N  0.77905347  0.13455678  0.46457458    -0.38400
N2354       N  0.76286552  0.14076799  0.14317867    -0.38400
C2355       C  0.79836402  0.38797107  0.41490392    -0.05000
C2356       C  0.78751566  0.38093660  0.44633895    -0.02100
C2357       C  0.78866798  0.34901598  0.45771918     0.02800
C2358       C  0.80557650  0.32575148  0.44080390    -0.05000
C2359       C  0.81305837  0.33145601  0.40844912    -0.02100
C2360       C  0.81026672  0.36257180  0.39552473     0.02800
C2361       C  0.77422451  0.40603493  0.46632914     0.37500
C2362       C  0.82087375  0.30461734  0.38779560     0.37500
C2363       C  0.81994944  0.36807892  0.36238216     0.35900
C2364       C  0.76420055  0.33733366  0.47856582     0.35900
N2365       N  0.82736814  0.37206854  0.33582853    -0.38900
N2366       N  0.75000687  0.32355627  0.99342969    -0.38900
N2367       N  0.82575602  0.28342697  0.37047477    -0.38400
N2368       N  0.76425610  0.42691485  0.48169746    -0.38400
C2369       C  0.81368170  0.09817115  0.40414917    -0.05000
C2370       C  0.83701213  0.09460768  0.42955952    -0.02100
C2371       C  0.84893579  0.12186161  0.44577620     0.02800
C2372       C  0.83865751  0.15316731  0.43599648    -0.05000
C2373       C  0.81937847  0.15679220  0.40763407    -0.02100
C2374       C  0.80815149  0.12939310  0.39097288     0.02800
C2375       C  0.84997487  0.06321407  0.43867121     0.37500
C2376       C  0.81078593  0.18858597  0.39552850     0.37500
C2377       C  0.79352378  0.13371856  0.35898421     0.35900
C2378       C  0.86824131  0.11705626  0.47532186     0.35900
N2379       N  0.78291703  0.13747973  0.33305028    -0.38900
N2380       N  0.87859076  0.11384130  0.00334110    -0.38900
N2381       N  0.80346285  0.21381332  0.38578468    -0.38400
N2382       N  0.86073951  0.03841836  0.44612162    -0.38400
C2383       C  0.95312570  0.31984332  0.34447400    -0.05000
C2384       C  0.96316732  0.33179980  0.37583877    -0.02100
C2385       C  0.94873692  0.32131700  0.40445766     0.02800
C2386       C  0.92526647  0.29754249  0.40305067    -0.05000
C2387       C  0.91676265  0.28375938  0.37225613    -0.02100
C2388       C  0.93062790  0.29482876  0.34340992     0.02800
C2389       C  0.98769257  0.35585935  0.38011696     0.37500
C2390       C  0.89472612  0.25703581  0.36955041     0.37500
C2391       C  0.92215789  0.27955482  0.31274716     0.35900
C2392       C  0.95861581  0.33487443  0.43567714     0.35900
N2393       N  0.91552120  0.26706717  0.28847850    -0.38900
N2394       N  0.96682523  0.34540440  0.46044422    -0.38900
N2395       N  0.87763203  0.23545438  0.36599384    -0.38400
N2396       N  0.00634716  0.37567873  0.38539270    -0.38400
C2397       C  0.94418142  0.33257775  0.15531870    -0.05000
C2398       C  0.93231641  0.30103560  0.15517937    -0.02100
C2399       C  0.91808136  0.28862927  0.12638351     0.02800
C2400       C  0.92354480  0.30348270  0.09562508    -0.05000
C2401       C  0.93527087  0.33506875  0.09593363    -0.02100
C2402       C  0.94091756  0.35067544  0.12583898     0.02800
C2403       C  0.93124629  0.28261636  0.18509464     0.37500
C2404       C  0.93735446  0.35316424  0.06591300     0.37500
C2405       C  0.93826486  0.38557263  0.12633395     0.35900
C2406       C  0.89501103  0.26307141  0.12981379     0.35900
N2407       N  0.93574723  0.41334718  0.12677587    -0.38900
N2408       N  0.87617006  0.24332153  0.13404776    -0.38900
N2409       N  0.93927253  0.36778348  0.04213201    -0.38400
N2410       N  0.93012740  0.26788400  0.20890014    -0.38400
C2411       C  0.95647294  0.18015297  0.35091256    -0.05000
C2412       C  0.94082071  0.16141931  0.37462002    -0.02100
C2413       C  0.93887571  0.17186506  0.40681547     0.02800
C2414       C  0.94575793  0.20357096  0.41524976    -0.05000
C2415       C  0.96270442  0.22218506  0.39295084    -0.02100
C2416       C  0.96775641  0.21087428  0.36061699     0.02800
C2417       C  0.92413960  0.13208052  0.36627360     0.37500
C2418       C  0.97977366  0.24945847  0.40594163     0.37500
C2419       C  0.98407711  0.23068354  0.33751103     0.35900
C2420       C  0.93425310  0.14861665  0.43232563     0.35900
N2421       N  0.99683492  0.24644187  0.31869857    -0.38900
N2422       N  0.93287878  0.12933892  0.45248468    -0.38900
N2423       N  0.99461209  0.26985748  0.41783134    -0.38400
N2424       N  0.90968570  0.10897438  0.36121106    -0.38400
C2425       C  0.92755161  0.20461933  0.09486147    -0.05000
C2426       C  0.91781585  0.17466745  0.10645327    -0.02100
C2427       C  0.93278893  0.16151795  0.13416772     0.02800
C2428       C  0.95065071  0.18127666  0.15632995    -0.05000
C2429       C  0.96139335  0.21104450  0.14415767    -0.02100
C2430       C  0.95271904  0.22060457  0.11183806     0.02800
C2431       C  0.89532478  0.15495803  0.08799367     0.37500
C2432       C  0.98237290  0.23097685  0.16373239     0.37500
C2433       C  0.97078398  0.24522471  0.09571994     0.35900
C2434       C  0.93522686  0.12676364  0.13449217     0.35900
N2435       N  0.98588859  0.26435314  0.08275809    -0.38900
N2436       N  0.93857761  0.09931019  0.13162700    -0.38900
N2437       N  0.99831577  0.24785558  0.17935008    -0.38400
N2438       N  0.87804520  0.13764340  0.07451335    -0.38400
C2439       C  0.70882020  0.39881401  0.42221199    -0.05000
C2440       C  0.68803398  0.40138259  0.44848711    -0.02100
C2441       C  0.67134982  0.37413570  0.45915488     0.02800
C2442       C  0.67973873  0.34264485  0.44883865    -0.05000
C2443       C  0.70249640  0.33958160  0.42441325    -0.02100
C2444       C  0.71471550  0.36730682  0.40935887     0.02800
C2445       C  0.68189434  0.43223481  0.46374069     0.37500
C2446       C  0.71184019  0.30793808  0.41284755     0.37500
C2447       C  0.73137043  0.36230999  0.37930636     0.35900
C2448       C  0.64312412  0.38012164  0.47760259     0.35900
N2449       N  0.74379674  0.35736514  0.35505434    -0.38900
N2450       N  0.61987526  0.38746721  0.49021481    -0.38900
N2451       N  0.71966570  0.28284816  0.40366393    -0.38400
N2452       N  0.67698640  0.45651447  0.47646416    -0.38400
C2453       C  0.68099364  0.14872343  0.45634495    -0.05000
C2454       C  0.70055880  0.14993925  0.42895706    -0.02100
C2455       C  0.70854749  0.12139183  0.41218189     0.02800
C2456       C  0.70464389  0.09020928  0.42648430    -0.05000
C2457       C  0.68524450  0.08883375  0.45410165    -0.02100
C2458       C  0.67221324  0.11747337  0.46770146     0.02800
C2459       C  0.71104766  0.18055825  0.41616785     0.37500
C2460       C  0.67648165  0.05793149  0.46750976     0.37500
C2461       C  0.64908831  0.11406657  0.49315155     0.35900
C2462       C  0.71425846  0.12481096  0.37775636     0.35900
N2463       N  0.63025656  0.11119688  0.51303141    -0.38900
N2464       N  0.71685821  0.12750206  0.35001005    -0.38900
N2465       N  0.66913488  0.03349345  0.47849331    -0.38400
N2466       N  0.72022220  0.20461140  0.40581844    -0.38400
C2467       C  0.69190792  0.40882749  0.08558201    -0.05000
C2468       C  0.66171789  0.40882851  0.07008823    -0.02100
C2469       C  0.64684433  0.37926861  0.06357172     0.02800
C2470       C  0.66504969  0.35002162  0.06466082    -0.05000
C2471       C  0.69148888  0.34921832  0.08621281    -0.02100
C2472       C  0.70365006  0.37848596  0.09854887     0.02800
C2473       C  0.64451745  0.43881134  0.06398887     0.37500
C2474       C  0.70292551  0.31865958  0.09935724     0.37500
C2475       C  0.72779731  0.37623780  0.12434015     0.35900
C2476       C  0.61215662  0.37913917  0.06166241     0.35900
N2477       N  0.74635787  0.37347928  0.14545875    -0.38900
N2478       N  0.58451664  0.38056126  0.06018581    -0.38900
N2479       N  0.71115017  0.29438406  0.11081047    -0.38400
N2480       N  0.63074648  0.46272627  0.05924736    -0.38400
C2481       C  0.67606114  0.16051126  0.05594929    -0.05000
C2482       C  0.65705057  0.13880966  0.07370898    -0.02100
C2483       C  0.66488345  0.10597227  0.07560734     0.02800
C2484       C  0.69346593  0.09431128  0.06300043    -0.05000
C2485       C  0.71095908  0.11463435  0.04291246    -0.02100
C2486       C  0.70317660  0.14802373  0.04033293     0.02800
C2487       C  0.62797611  0.14932786  0.08895050     0.37500
C2488       C  0.72995490  0.09898384  0.01895370     0.37500
C2489       C  0.72142752  0.16935253  0.02031092     0.35900
C2490       C  0.64168379  0.08354226  0.08773709     0.35900
N2491       N  0.73517919  0.18772017  0.00490924    -0.38900
N2492       N  0.62183285  0.06661985  0.09647905    -0.38900
N2493       N  0.74260942  0.08496458  0.99870441    -0.38400
N2494       N  0.60424717  0.15561664  0.10128313    -0.38400
C2495       C  0.57510251  0.29061378  0.40614113    -0.05000
C2496       C  0.56810687  0.27238002  0.37838252    -0.02100
C2497       C  0.56623127  0.28691853  0.34758807     0.02800
C2498       C  0.56767962  0.32068105  0.34493288    -0.05000
C2499       C  0.57718345  0.33867287  0.37268530    -0.02100
C2500       C  0.57771896  0.32402889  0.40334770     0.02800
C2501       C  0.55450477  0.24124857  0.38254124     0.37500
C2502       C  0.58662896  0.37213836  0.37017658     0.37500
C2503       C  0.57524600  0.34354324  0.43216895     0.35900
C2504       C  0.56419840  0.26704340  0.31881867     0.35900
N2505       N  0.57072499  0.35869064  0.45508669    -0.39500
N2506       N  0.56294663  0.25168981  0.29545547    -0.38900
N2507       N  0.59430642  0.39877928  0.36849908    -0.38400
N2508       N  0.54115695  0.21737307  0.38609013    -0.38400
C2509       C  0.53663684  0.34311051  0.14197781    -0.05000
C2510       C  0.52566813  0.35121222  0.10995526    -0.02100
C2511       C  0.53604674  0.33236791  0.08338702     0.02800
C2512       C  0.56365546  0.31281229  0.08774332    -0.05000
C2513       C  0.57896354  0.31316029  0.11874372    -0.02100
C2514       C  0.56151535  0.32010066  0.14547103     0.02800
C2515       C  0.50863173  0.38100529  0.10336489     0.37500
C2516       C  0.61323658  0.31703527  0.12348787     0.37500
C2517       C  0.57349741  0.30696931  0.17625608     0.35900
C2518       C  0.52152594  0.33675512  0.05146704     0.35900
N2519       N  0.58291670  0.29672009  0.20084110    -0.38900
N2520       N  0.51005409  0.34034246  0.02587613    -0.38900
N2521       N  0.64007159  0.32084708  0.12962337    -0.38400
N2522       N  0.00590331  0.39715859  0.11364746    -0.38400
C2523       C  0.59961329  0.18549293  0.40150151    -0.05000
C2524       C  0.61146793  0.19501738  0.37083171    -0.02100
C2525       C  0.59566925  0.18513376  0.34188239     0.02800
C2526       C  0.56806124  0.16592438  0.34337753    -0.05000
C2527       C  0.56144292  0.15061368  0.37380066    -0.02100
C2528       C  0.57797158  0.15981021  0.40239720     0.02800
C2529       C  0.63896498  0.21594099  0.36856527     0.37500
C2530       C  0.53676841  0.12636412  0.37696960     0.37500
C2531       C  0.57218095  0.14305644  0.43267804     0.35900
C2532       C  0.60870147  0.19398485  0.31088300     0.35900
N2533       N  0.56746429  0.12917091  0.45643067    -0.38900
N2534       N  0.61985082  0.20130586  0.28657565    -0.38900
N2535       N  0.01513351  0.10863151  0.38044326    -0.38400
N2536       N  0.66092913  0.23260144  0.36680139    -0.38400
C2537       C  0.56055208  0.21134747  0.09201289    -0.05000
C2538       C  0.57118008  0.22036759  0.12405397    -0.02100
C2539       C  0.55707026  0.20754849  0.15191754     0.02800
C2540       C  0.53619328  0.18090920  0.14938424    -0.05000
C2541       C  0.52577553  0.17155759  0.11748649    -0.02100
C2542       C  0.53575969  0.18858426  0.08947756     0.02800
C2543       C  0.60057768  0.23812336  0.12979765     0.37500
C2544       C  0.50716380  0.14273008  0.11239249     0.37500
C2545       C  0.52248887  0.18039904  0.05779383     0.35900
C2546       C  0.56749922  0.21981051  0.18351710     0.35900
N2547       N  0.51146956  0.17407446  0.03260733    -0.38900
N2548       N  0.57599109  0.22874643  0.20885133    -0.38900
N2549       N  0.49333192  0.11919267  0.10736977    -0.38400
N2550       N  0.62514291  0.24971572  0.13558234    -0.38400
O2551       O  0.57688191  0.20395180  0.53335183    -0.79800
O2552       O  0.57647093  0.28152130  0.96135257    -0.79800
O2553       O  0.60760180  0.28117093  0.56927357    -0.79900
O2554       O  0.60841710  0.21718112  0.94857754    -0.79800
O2555       O  0.56909510  0.28765748  0.53222714    -0.79900
O2556       O  0.58756648  0.17874331  0.97902109    -0.79800
O2557       O  0.61985898  0.27063374  0.93290515    -0.79800
O2558       O  0.61464682  0.21809544  0.56919897    -0.79900
C2559       C  0.58712913  0.20609451  0.56260254     1.09900
C2560       C  0.59057175  0.27988146  0.93409526     1.09700
C2561       C  0.57963284  0.29054938  0.56153324     1.09900
C2562       C  0.59243246  0.19091253  0.95096132     1.09800
O2563       O  0.64948457  0.19310273  0.98073268    -0.79800
O2564       O  0.62468462  0.32385202  0.53029525    -0.79900
O2565       O  0.67725882  0.22372770  0.54229155    -0.79800
O2566       O  0.67545578  0.28497517  0.97279826    -0.79800
O2567       O  0.63333371  0.31722187  0.96759750    -0.79900
O2568       O  0.64204004  0.18581472  0.52895905    -0.79800
O2569       O  0.67240232  0.21982141  0.94165500    -0.79800
O2570       O  0.66720224  0.29475561  0.54463641    -0.79900
Co2571     Co  0.61016995  0.21040421  0.50149804     1.51500
Co2572     Co  0.60180662  0.30040653  0.99850980     1.51700
Co2573     Co  0.64195962  0.25444345  0.55272880     1.51600
Co2574     Co  0.64486163  0.24685670  0.96788177     1.51500
O2575       O  0.62531187  0.25452557  0.50644394    -1.41800
C2576       C  0.66857559  0.19305333  0.95677080     1.09800
C2577       C  0.65170821  0.32167202  0.54456982     1.09900
C2578       C  0.66928074  0.19415310  0.54069847     1.09800
C2579       C  0.66336903  0.31328216  0.96702682     1.09800
O2580       O  0.87868373  0.21946646  0.56568397    -0.79800
O2581       O  0.88489320  0.28095151  0.92937277    -0.79800
O2582       O  0.93206148  0.21768951  0.97066545    -0.79900
O2583       O  0.92094047  0.28868324  0.53619538    -0.79800
O2584       O  0.89421620  0.21956598  0.93226425    -0.79900
O2585       O  0.87869465  0.28117224  0.56700031    -0.79800
O2586       O  0.92472146  0.28421415  0.96458761    -0.79800
O2587       O  0.92260502  0.22267379  0.53818229    -0.79900
C2588       C  0.90908387  0.21660898  0.56439243     1.09900
C2589       C  0.91428106  0.28507938  0.93518485     1.09700
C2590       C  0.92312878  0.21352433  0.94107255     1.09900
C2591       C  0.90799622  0.28812361  0.56452006     1.09800
O2592       O  0.82101191  0.29123022  0.52898132    -0.79800
O2593       O  0.83203813  0.20932238  0.95975018    -0.79900
O2594       O  0.86312360  0.18353351  0.52437001    -0.79800
O2595       O  0.86132701  0.31660711  0.96511539    -0.79800
O2596       O  0.82436828  0.27858093  0.95978175    -0.79900
O2597       O  0.82153543  0.21747273  0.52430689    -0.79800
O2598       O  0.86331491  0.32139922  0.52943907    -0.79800
O2599       O  0.87555257  0.18084327  0.96862535    -0.79900
Co2600     Co  0.85017642  0.25208614  0.54168532     1.51500
Co2601     Co  0.85866985  0.24741233  0.94991287     1.51700
Co2602     Co  0.89844787  0.20681183  0.49992725     1.51600
Co2603     Co  0.89372519  0.29849040  0.99817142     1.51500
O2604       O  0.87405654  0.25124154  0.49736050    -1.41800
C2605       C  0.83357974  0.31951635  0.53231160     1.09800
C2606       C  0.84731761  0.18284470  0.95749811     1.09900
C2607       C  0.83285633  0.18870331  0.52656267     1.09800
C2608       C  0.83275447  0.30785413  0.95748363     1.09800
O2609       O  0.71107702  0.04102959  0.67385735    -0.79800
O2610       O  0.77548040  0.43467732  0.66730479    -0.79800
O2611       O  0.67634007  0.47824580  0.63346779    -0.79900
O2612       O  0.81371427  0.03202872  0.63355544    -0.79800
O2613       O  0.71073131  0.45779689  0.66934408    -0.79900
O2614       O  0.78087746  0.03986235  0.67379843    -0.79800
O2615       O  0.80661338  0.46573744  0.63638543    -0.79800
O2616       O  0.67584323  0.04125569  0.63332615    -0.79900
C2617       C  0.68236417  0.04520738  0.66347796     1.09900
C2618       C  0.80307131  0.44224657  0.65699037     1.09700
C2619       C  0.68171638  0.46222487  0.65875374     1.09900
C2620       C  0.80896448  0.04124987  0.66232185     1.09800
O2621       O  0.77753175  0.07450360  0.61505830    -0.79800
O2622       O  0.72601151  0.43980784  0.61681195    -0.79900
O2623       O  0.70722369  0.04287452  0.57070349    -0.79800
O2624       O  0.77952524  0.47088036  0.57056233    -0.79800
O2625       O  0.76307966  0.43687062  0.60735065    -0.79900
O2626       O  0.71509526  0.07588847  0.61246718    -0.79800
O2627       O  0.78136646  0.04315402  0.57242943    -0.79800
O2628       O  0.70402935  0.46845084  0.57627893    -0.79900
Co2629     Co  0.74561108  0.05373377  0.64321737     1.51500
Co2630     Co  0.75263334  0.46854190  0.64587261     1.51700
Co2631     Co  0.69498219  0.00867013  0.60236888     1.51600
Co2632     Co  0.78938411  0.00405240  0.60201556     1.51500
O2633       O  0.74236758  0.00963065  0.62026295    -1.41800
C2634       C  0.78284572  0.07143409  0.58521377     1.09800
C2635       C  0.70677294  0.44163106  0.59207456     1.09900
C2636       C  0.70759219  0.07123980  0.58270124     1.09800
C2637       C  0.77546753  0.44168103  0.57946677     1.09800
O2638       O  0.68302409  0.03002283  0.86059883    -0.79800
O2639       O  0.81990147  0.47144151  0.87234525    -0.79800
O2640       O  0.79079510  0.03415419  0.82853838    -0.79900
O2641       O  0.71346442  0.45496978  0.81913382    -0.79800
O2642       O  0.81993080  0.01357109  0.87048184    -0.79900
O2643       O  0.68247450  0.46489975  0.86094369    -0.79800
O2644       O  0.79166012  0.45445730  0.82899150    -0.79800
O2645       O  0.71348158  0.04421686  0.82006442    -0.79900
C2646       C  0.68609007  0.04369215  0.83324830     1.09900
C2647       C  0.81837463  0.45723006  0.84510459     1.09700
C2648       C  0.81807696  0.02929802  0.84276690     1.09900
C2649       C  0.68573763  0.45653503  0.83150983     1.09800
O2650       O  0.71443861  0.46051993  0.92102606    -0.79800
O2651       O  0.79504302  0.04427958  0.90918098    -0.79900
O2652       O  0.72868294  0.06720766  0.88129840    -0.79800
O2653       O  0.77247090  0.42519695  0.87711664    -0.79800
O2654       O  0.78975911  0.45370478  0.92022770    -0.79900
O2655       O  0.71267483  0.03646979  0.92157973    -0.79800
O2656       O  0.72514687  0.42782219  0.87986311    -0.79800
O2657       O  0.77620751  0.07326005  0.86787674    -0.79900
Co2658     Co  0.70264839  0.99799820  0.89143518     1.51500
Co2659     Co  0.78766108  0.99639897  0.90523679     1.51700
Co2660     Co  0.74999203  0.03740822  0.85143318     1.51600
Co2661     Co  0.74924890  0.45766379  0.85123566     1.51500
O2662       O  0.74827906  0.99750758  0.87516030    -1.41800
C2663       C  0.71585274  0.43165284  0.90891180     1.09800
C2664       C  0.79325724  0.07090734  0.89367061     1.09900
C2665       C  0.71619142  0.06490064  0.90883536     1.09800
C2666       C  0.78595969  0.42648141  0.90507773     1.09800
O2667       O  0.53745744  0.15989047  0.70435891    -0.79800
O2668       O  0.96365058  0.17811364  0.79017411    -0.79800
O2669       O  0.97321936  0.13732087  0.68309664    -0.79900
O2670       O  0.53172750  0.12158844  0.82400698    -0.79800
O2671       O  0.96197959  0.17946015  0.71424623    -0.79900
O2672       O  0.53617465  0.16910895  0.80193506    -0.79800
O2673       O  0.96877538  0.13462204  0.82158020    -0.79800
O2674       O  0.51293366  0.12331163  0.67501287    -0.79900
C2675       C  0.53059444  0.14793008  0.67644755     1.09900
C2676       C  0.96293867  0.16462456  0.81840622     1.09700
C2677       C  0.96308659  0.16604351  0.68587951     1.09900
C2678       C  0.53955246  0.15012048  0.82618239     1.09800
O2679       O  0.56409784  0.12228252  0.76936111    -0.79800
O2680       O  0.92613094  0.12373269  0.71854947    -0.79900
O2681       O  0.53657134  0.08343662  0.71046859    -0.79800
O2682       O  0.96106278  0.07707973  0.78502238    -0.79800
O2683       O  0.92851670  0.11969201  0.78251278    -0.79900
O2684       O  0.56446025  0.12602585  0.72935700    -0.79800
O2685       O  0.53588116  0.07746699  0.78058584    -0.79800
O2686       O  0.95458438  0.08121712  0.70316457    -0.79900
Co2687     Co  0.53384484  0.15815258  0.75361799     1.51500
Co2688     Co  0.94895665  0.15032998  0.75193312     1.51700
Co2689     Co  0.49385211  0.10662051  0.71498345     1.51600
Co2690     Co  0.99817093  0.10552727  0.79784727     1.51500
O2691       O  0.99236920  0.12757935  0.75433798    -1.41800
C2692       C  0.56303807  0.09284982  0.77984273     1.09800
C2693       C  0.92798090  0.09722844  0.70346503     1.09900
C2694       C  0.56337830  0.09861386  0.71360921     1.09800
C2695       C  0.93288085  0.08959391  0.78737709     1.09800
O2696       O  0.51175075  0.37396497  0.67712552    -0.79800
O2697       O  0.97613714  0.36204531  0.82473836    -0.79800
O2698       O  0.54496628  0.32267622  0.78392485    -0.79900
O2699       O  0.96259990  0.32215588  0.71727194    -0.79800
O2700       O  0.53872367  0.36465729  0.81648615    -0.79900
O2701       O  0.96967034  0.36541710  0.68689942    -0.79800
O2702       O  0.97258291  0.32056036  0.79138570    -0.79800
O2703       O  0.52776860  0.33005289  0.70410178    -0.79900
C2704       C  0.52410647  0.34571720  0.67711332     1.09900
C2705       C  0.97348534  0.33202268  0.82032774     1.09700
C2706       C  0.54929553  0.33635338  0.81162287     1.09900
C2707       C  0.96037101  0.33657634  0.68936223     1.09800
O2708       O  0.95199687  0.41959881  0.71029272    -0.79800
O2709       O  0.53767821  0.42235079  0.78117408    -0.79900
O2710       O  0.56441490  0.37540948  0.71919205    -0.79800
O2711       O  0.93231862  0.37695523  0.79041134    -0.79800
O2712       O  0.96361680  0.42029621  0.79144572    -0.79900
O2713       O  0.53512952  0.41917528  0.70820880    -0.79800
O2714       O  0.92574227  0.37646428  0.72745504    -0.79800
O2715       O  0.56633118  0.38035366  0.76615239    -0.79900
Co2716     Co  0.49244138  0.39639201  0.71520869     1.51500
Co2717     Co  0.50421989  0.39458029  0.80064388     1.51700
Co2718     Co  0.53318301  0.35228639  0.74712560     1.51600
Co2719     Co  0.95197246  0.34896573  0.75701465     1.51500
O2720       O  0.49368537  0.37442085  0.75705102    -1.41800
C2721       C  0.92597205  0.40310513  0.71255618     1.09800
C2722       C  0.56508292  0.40867811  0.77731957     1.09900
C2723       C  0.56231450  0.40376645  0.70711062     1.09800
C2724       C  0.93662424  0.40669723  0.79643299     1.09800
C2725       C  0.84920458  0.44455499  0.83316348    -0.05000
C2726       C  0.86256727  0.45756705  0.80522853    -0.02100
C2727       C  0.89469708  0.45015856  0.79768495     0.02800
C2728       C  0.90967038  0.42333362  0.81222882    -0.05000
C2729       C  0.89572388  0.40988134  0.83994049    -0.02100
C2730       C  0.86864493  0.42430569  0.85298245     0.02800
C2731       C  0.84345486  0.48070729  0.78761081     0.37500
C2732       C  0.90805062  0.38127756  0.85570832     0.37500
C2733       C  0.86370399  0.42073285  0.88749883     0.35900
C2734       C  0.91508885  0.47318062  0.78266431     0.35900
N2735       N  0.86205951  0.41834073  0.91537777    -0.38900
N2736       N  0.93384466  0.49129210  0.77378045    -0.38900
N2737       N  0.91482165  0.35810768  0.86979958    -0.38400
N2738       N  0.82488640  0.49899105  0.77729505    -0.38400
C2739       C  0.59669589  0.42300451  0.78743671    -0.05000
C2740       C  0.59811552  0.45300289  0.80303133    -0.02100
C2741       C  0.62615431  0.46146930  0.82032758     0.02800
C2742       C  0.65596367  0.44617854  0.81381919    -0.05000
C2743       C  0.65544009  0.41760738  0.79563130    -0.02100
C2744       C  0.62568600  0.40406361  0.78658494     0.02800
C2745       C  0.56975541  0.47307750  0.80588395     0.37500
C2746       C  0.68469656  0.39915089  0.79096423     0.37500
C2747       C  0.62516892  0.36926664  0.78281924     0.35900
C2748       C  0.62173004  0.47883819  0.85022706     0.35900
N2749       N  0.62481367  0.34143531  0.78115630    -0.38900
N2750       N  0.61863981  0.99329269  0.87223506    -0.38900
N2751       N  0.70757961  0.38393912  0.78700349    -0.38400
N2752       N  0.54706922  0.48894949  0.80821676    -0.38400
C2753       C  0.84823206  0.04248554  0.82727792    -0.05000
C2754       C  0.87987525  0.03464662  0.83896962    -0.02100
C2755       C  0.90741518  0.04768767  0.82413999     0.02800
C2756       C  0.90426984  0.07115473  0.79928386    -0.05000
C2757       C  0.87268153  0.08103013  0.78968708    -0.02100
C2758       C  0.84544000  0.06533971  0.80150232     0.02800
C2759       C  0.88496188  0.01415690  0.86714248     0.37500
C2760       C  0.86713886  0.10958680  0.76990187     0.37500
C2761       C  0.81457360  0.07364831  0.78644269     0.35900
C2762       C  0.93911689  0.03852483  0.83631917     0.35900
N2763       N  0.79030616  0.08026860  0.77382713    -0.38900
N2764       N  0.96439727  0.03103504  0.84589764    -0.38900
N2765       N  0.86179899  0.13336116  0.75609516    -0.38400
N2766       N  0.88987126  0.99830577  0.88987286    -0.38400
C2767       C  0.65588462  0.05905475  0.81902014    -0.05000
C2768       C  0.65422103  0.07533990  0.78904502    -0.02100
C2769       C  0.62486451  0.08996699  0.77889464     0.02800
C2770       C  0.59501152  0.07915611  0.79161714    -0.05000
C2771       C  0.59710471  0.06357188  0.82196120    -0.02100
C2772       C  0.62737471  0.05901199  0.83736242     0.02800
C2773       C  0.68299158  0.08171926  0.77120305     0.37500
C2774       C  0.56849032  0.05706996  0.83995743     0.37500
C2775       C  0.62911996  0.06067185  0.87255064     0.35900
C2776       C  0.62760595  0.12147841  0.76420120     0.35900
N2777       N  0.63034120  0.06227881  0.90056924    -0.38900
N2778       N  0.63103054  0.14743216  0.75471538    -0.38900
N2779       N  0.54581707  0.05171403  0.85451505    -0.38400
N2780       N  0.70567161  0.08723777  0.75669280    -0.38400
C2781       C  0.83265685  0.42896020  0.67218304    -0.05000
C2782       C  0.84423015  0.39780730  0.66724740    -0.02100
C2783       C  0.87339209  0.38838101  0.68278469     0.02800
C2784       C  0.89449414  0.41213296  0.69654348    -0.05000
C2785       C  0.88299534  0.44365199  0.69878889    -0.02100
C2786       C  0.85067004  0.45025365  0.69101893     0.02800
C2787       C  0.82615682  0.37546668  0.64721765     0.37500
C2788       C  0.90557956  0.46861878  0.70548824     0.37500
C2789       C  0.83224347  0.47468405  0.70656216     0.35900
C2790       C  0.87913128  0.35425753  0.68677320     0.35900
N2791       N  0.81102503  0.99399224  0.71389066    -0.38900
N2792       N  0.88123939  0.32682331  0.69103113    -0.38900
N2793       N  0.92536832  0.98848829  0.70840275    -0.38400
N2794       N  0.81239538  0.35734115  0.63091898    -0.38400
C2795       C  0.59297816  0.41839020  0.69419004    -0.05000
C2796       C  0.62359834  0.40248198  0.69766095    -0.02100
C2797       C  0.65255216  0.41818018  0.68976324     0.02800
C2798       C  0.65174650  0.44778666  0.67308988    -0.05000
C2799       C  0.62070818  0.46185690  0.66602981    -0.02100
C2800       C  0.59225794  0.44819397  0.67780649     0.02800
C2801       C  0.62628166  0.36862688  0.70571020     0.37500
C2802       C  0.61680945  0.49058304  0.64607523     0.37500
C2803       C  0.56183141  0.46426782  0.67082760     0.35900
C2804       C  0.68313506  0.40272761  0.69743608     0.35900
N2805       N  0.53763917  0.47712405  0.66511861    -0.38900
N2806       N  0.70739886  0.39039496  0.70402880    -0.38900
N2807       N  0.61258171  0.51308603  0.62988193    -0.38400
N2808       N  0.63027106  0.34152588  0.71097928    -0.38400
C2809       C  0.89740207  0.08675004  0.68649483    -0.05000
C2810       C  0.89361385  0.05509607  0.67618957    -0.02100
C2811       C  0.86529050  0.04010351  0.68465330     0.02800
C2812       C  0.83654169  0.05728112  0.67950686    -0.05000
C2813       C  0.83825521  0.09116228  0.68198624    -0.02100
C2814       C  0.86877718  0.10608001  0.68606131     0.02800
C2815       C  0.91922833  0.03737914  0.66152092     0.37500
C2816       C  0.80904977  0.10978081  0.68415966     0.37500
C2817       C  0.87053702  0.14092211  0.68605335     0.35900
C2818       C  0.86874274  0.03166107  0.71827395     0.35900
N2819       N  0.87161692  0.16874286  0.68575654    -0.38900
N2820       N  0.87790131  0.52464563  0.74902997    -0.38900
N2821       N  0.78574764  0.12446753  0.68759723    -0.38400
N2822       N  0.93996118  0.52533089  0.65252504    -0.38400
C2823       C  0.59505981  0.08452513  0.70236492    -0.05000
C2824       C  0.61899298  0.10485030  0.68949211    -0.02100
C2825       C  0.64940585  0.09251720  0.68111066     0.02800
C2826       C  0.65668112  0.05963738  0.68426442    -0.05000
C2827       C  0.63552250  0.04063224  0.70211685    -0.02100
C2828       C  0.60418022  0.05214216  0.70917613     0.02800
C2829       C  0.61393983  0.13912326  0.68625958     0.37500
C2830       C  0.64788584  0.01183066  0.71785985     0.37500
C2831       C  0.58195518  0.03089962  0.72464075     0.35900
C2832       C  0.67448830  0.11427076  0.67190328     0.35900
N2833       N  0.56394846  0.01387156  0.73667714    -0.38900
N2834       N  0.69437812  0.13226314  0.66567257    -0.38900
N2835       N  0.65852203  0.48856719  0.73253283    -0.38400
N2836       N  0.61274669  0.16684890  0.68494726    -0.38400
C2837       C  0.81655716  0.35165351  0.54024363    -0.05000
C2838       C  0.83265707  0.38195700  0.53683259    -0.02100
C2839       C  0.81978767  0.41101607  0.54987930     0.02800
C2840       C  0.78781052  0.41253501  0.56019823    -0.05000
C2841       C  0.76979336  0.38398341  0.55577896    -0.02100
C2842       C  0.78525239  0.35348715  0.55195402     0.02800
C2843       C  0.86182778  0.38427805  0.51867308     0.37500
C2844       C  0.73965788  0.38767700  0.53855891     0.37500
C2845       C  0.76832279  0.32396378  0.55760265     0.35900
C2846       C  0.83978314  0.43926537  0.55276240     0.35900
N2847       N  0.75641030  0.29918752  0.56096771    -0.38900
N2848       N  0.85586217  0.46171706  0.55530835    -0.38900
N2849       N  0.71658403  0.39024290  0.52260601    -0.38400
N2850       N  0.88471963  0.38644382  0.50361901    -0.38400
C2851       C  0.79205136  0.10232732  0.56768745    -0.05000
C2852       C  0.78728836  0.13320706  0.58251069    -0.02100
C2853       C  0.80061454  0.16146305  0.56933588     0.02800
C2854       C  0.81247507  0.16120116  0.53784432    -0.05000
C2855       C  0.80938809  0.13222537  0.52017891    -0.02100
C2856       C  0.80530537  0.10256083  0.53656465     0.02800
C2857       C  0.76671727  0.13740053  0.60975094     0.37500
C2858       C  0.79400023  0.13421095  0.48861661     0.37500
C2859       C  0.81189700  0.07276222  0.51984957     0.35900
C2860       C  0.80184930  0.19089897  0.58819552     0.35900
N2861       N  0.81700976  0.04875371  0.50674216    -0.38900
N2862       N  0.80304031  0.21438325  0.60317782    -0.38900
N2863       N  0.77517336  0.14281024  0.96894271    -0.38400
N2864       N  0.74965425  0.14225942  0.63079312    -0.38400
C2865       C  0.79578638  0.39422185  0.91818008    -0.05000
C2866       C  0.78782861  0.38478086  0.94975392    -0.02100
C2867       C  0.79258832  0.35243970  0.95951589     0.02800
C2868       C  0.81177552  0.33199163  0.94121378    -0.05000
C2869       C  0.81722804  0.33985818  0.90883039    -0.02100
C2870       C  0.80740191  0.37002412  0.89661498     0.02800
C2871       C  0.77282221  0.40782490  0.97076945     0.37500
C2872       C  0.83100647  0.31610086  0.88749732     0.37500
C2873       C  0.80904891  0.37513426  0.86177208     0.35900
C2874       C  0.76966002  0.33709657  0.97977558     0.35900
N2875       N  0.80972981  0.37809575  0.83387443    -0.38900
N2876       N  0.74304334  0.32683905  0.49259557    -0.38900
N2877       N  0.84121808  0.29745091  0.86966354    -0.38400
N2878       N  0.76139773  0.42788114  0.98618172    -0.38400
C2879       C  0.81153767  0.09931042  0.90645878    -0.05000
C2880       C  0.83313142  0.09570047  0.93333562    -0.02100
C2881       C  0.84427112  0.12293020  0.95012862     0.02800
C2882       C  0.83530293  0.15436885  0.93934858    -0.05000
C2883       C  0.81828864  0.15787814  0.90954047    -0.02100
C2884       C  0.80780322  0.13036918  0.89244268     0.02800
C2885       C  0.84613618  0.06433435  0.94254201     0.37500
C2886       C  0.81247617  0.18961796  0.89580835     0.37500
C2887       C  0.79739513  0.13402086  0.85884176     0.35900
C2888       C  0.86325247  0.11803569  0.97991718     0.35900
N2889       N  0.79037779  0.13711961  0.83168993    -0.38900
N2890       N  0.88314290  0.11300166  0.49905866    -0.38900
N2891       N  0.80770402  0.21492910  0.88480474    -0.38400
N2892       N  0.85695354  0.03952851  0.94990668    -0.38400
C2893       C  0.96611203  0.31280884  0.84991686    -0.05000
C2894       C  0.97539972  0.32462536  0.88139507    -0.02100
C2895       C  0.96007330  0.31380523  0.90945694     0.02800
C2896       C  0.93463573  0.29190542  0.90674519    -0.05000
C2897       C  0.92672092  0.27865804  0.87563959    -0.02100
C2898       C  0.94285573  0.28850561  0.84773519     0.02800
C2899       C  0.99595519  0.35241556  0.88523823     0.37500
C2900       C  0.90179986  0.25475000  0.87141436     0.37500
C2901       C  0.93332403  0.27523445  0.81636916     0.35900
C2902       C  0.96886304  0.32748039  0.94084706     0.35900
N2903       N  0.92587200  0.26435636  0.79151956    -0.38900
N2904       N  0.97598981  0.33843091  0.96574879    -0.38900
N2905       N  0.88222136  0.23564353  0.86669168    -0.38400
N2906       N  0.01026029  0.37585962  0.88921868    -0.38400
C2907       C  0.94732012  0.32248988  0.65769831    -0.05000
C2908       C  0.93300596  0.29203257  0.65568811    -0.02100
C2909       C  0.91784487  0.28226546  0.62612300     0.02800
C2910       C  0.92410404  0.29835715  0.59603192    -0.05000
C2911       C  0.93839801  0.32872676  0.59817104    -0.02100
C2912       C  0.94507288  0.34223433  0.62899209     0.02800
C2913       C  0.92952154  0.27280110  0.68483031     0.37500
C2914       C  0.94110248  0.34848028  0.56927858     0.37500
C2915       C  0.94244564  0.37708018  0.63115509     0.35900
C2916       C  0.89319963  0.25805003  0.62831957     0.35900
N2917       N  0.93962281  0.40477792  0.63262894    -0.38900
N2918       N  0.87321855  0.23926706  0.63157164    -0.38900
N2919       N  0.94331009  0.36448706  0.54643998    -0.38400
N2920       N  0.92664426  0.25734219  0.70796509    -0.38400
C2921       C  0.95246731  0.18083418  0.84920315    -0.05000
C2922       C  0.93161897  0.16344492  0.86907463    -0.02100
C2923       C  0.93040514  0.16938144  0.90242024     0.02800
C2924       C  0.94307562  0.19751661  0.91587565    -0.05000
C2925       C  0.96435003  0.21516075  0.89700192    -0.02100
C2926       C  0.96902742  0.20694600  0.86356880     0.02800
C2927       C  0.90885337  0.14098315  0.85535871     0.37500
C2928       C  0.98308150  0.23912999  0.91391332     0.37500
C2929       C  0.98820347  0.22634089  0.84285709     0.35900
C2930       C  0.92180415  0.14342050  0.92361460     0.35900
N2931       N  0.00222738  0.24169603  0.82477190    -0.38900
N2932       N  0.91752228  0.12103928  0.93954799    -0.38900
N2933       N  0.99833504  0.25692798  0.92920956    -0.38400
N2934       N  0.88894453  0.12400272  0.84598102    -0.38400
C2935       C  0.92732053  0.20254410  0.59255691    -0.05000
C2936       C  0.91740836  0.17295586  0.60490813    -0.02100
C2937       C  0.93297500  0.16008090  0.63243137     0.02800
C2938       C  0.95104879  0.18021994  0.65406448    -0.05000
C2939       C  0.96238114  0.20931840  0.64084344    -0.02100
C2940       C  0.95335357  0.21821656  0.60843534     0.02800
C2941       C  0.89422115  0.15332437  0.58726444     0.37500
C2942       C  0.98398934  0.22942862  0.65947880     0.37500
C2943       C  0.97154513  0.24212036  0.59132852     0.35900
C2944       C  0.93635326  0.12538448  0.63261387     0.35900
N2945       N  0.98661953  0.26075288  0.57759988    -0.38900
N2946       N  0.94038176  0.09799069  0.62980449    -0.38900
N2947       N  0.00023366  0.24676182  0.67421582    -0.38400
N2948       N  0.87625686  0.13645272  0.57412859    -0.38400
C2949       C  0.70643752  0.40100280  0.92694178    -0.05000
C2950       C  0.68730614  0.40255741  0.95450503    -0.02100
C2951       C  0.67244614  0.37442439  0.96631008     0.02800
C2952       C  0.68191608  0.34279581  0.95645164    -0.05000
C2953       C  0.70345179  0.34093426  0.93084148    -0.02100
C2954       C  0.71310532  0.36934924  0.91440481     0.02800
C2955       C  0.67995478  0.43343510  0.96918874     0.37500
C2956       C  0.71273567  0.30956724  0.91870534     0.37500
C2957       C  0.72658209  0.36490141  0.88266218     0.35900
C2958       C  0.64359809  0.37974598  0.98394328     0.35900
N2959       N  0.73606341  0.36072373  0.85688393    -0.38900
N2960       N  0.61957928  0.38659647  0.99538334    -0.38900
N2961       N  0.72028050  0.28461940  0.90896113    -0.38400
N2962       N  0.67406074  0.45783371  0.98124451    -0.38400
C2963       C  0.68272706  0.16018525  0.94659530    -0.05000
C2964       C  0.70338055  0.15769405  0.92020252    -0.02100
C2965       C  0.71075671  0.12725673  0.90648151     0.02800
C2966       C  0.70491660  0.09738071  0.92311380    -0.05000
C2967       C  0.68522880  0.09963068  0.95036006    -0.02100
C2968       C  0.67263588  0.13008749  0.96054962     0.02800
C2969       C  0.71602327  0.18649238  0.90547055     0.37500
C2970       C  0.67550866  0.07035037  0.96656431     0.37500
C2971       C  0.64721650  0.12882643  0.98378495     0.35900
C2972       C  0.71858654  0.12776096  0.87239543     0.35900
N2973       N  0.62667446  0.12575642  0.00178001    -0.38900
N2974       N  0.72301772  0.12836097  0.84483367    -0.38900
N2975       N  0.66765304  0.04718473  0.97978135    -0.38400
N2976       N  0.72641880  0.20928226  0.89356788    -0.38400
C2977       C  0.68988193  0.41062890  0.58383670    -0.05000
C2978       C  0.66017033  0.41059831  0.56702230    -0.02100
C2979       C  0.64515515  0.38099744  0.55998907     0.02800
C2980       C  0.66289974  0.35148495  0.56223160    -0.05000
C2981       C  0.68904201  0.35090766  0.58423113    -0.02100
C2982       C  0.70126002  0.38013326  0.59668713     0.02800
C2983       C  0.64372306  0.44065444  0.55933892     0.37500
C2984       C  0.70031541  0.32041619  0.59770875     0.37500
C2985       C  0.72567627  0.37759209  0.62221993     0.35900
C2986       C  0.61047627  0.38094227  0.55668926     0.35900
N2987       N  0.74474936  0.37467635  0.64286866    -0.38900
N2988       N  0.58280669  0.38154582  0.55443507    -0.38900
N2989       N  0.70843542  0.29622931  0.60940675    -0.38400
N2990       N  0.63062061  0.46463921  0.55315278    -0.38400
C2991       C  0.68832874  0.16764630  0.55561980    -0.05000
C2992       C  0.67288493  0.15195692  0.58078478    -0.02100
C2993       C  0.67272113  0.11846846  0.58241142     0.02800
C2994       C  0.69530417  0.10037470  0.56542429    -0.05000
C2995       C  0.71325787  0.11601759  0.54160112    -0.02100
C2996       C  0.70969424  0.14985815  0.53671345     0.02800
C2997       C  0.65841705  0.17052809  0.60601318     0.37500
C2998       C  0.73084185  0.09635274  0.51941873     0.37500
C2999       C  0.72818996  0.16743446  0.51357925     0.35900
C3000       C  0.64715775  0.10244972  0.59896757     0.35900
N3001       N  0.74205032  0.18352930  0.49589733    -0.38900
N3002       N  0.62567830  0.09004269  0.61082410    -0.38900
N3003       N  0.74333146  0.07956213  0.50125037    -0.38400
N3004       N  0.64863650  0.18509519  0.62742788    -0.38400
C3005       C  0.57601205  0.29405926  0.90387939    -0.05000
C3006       C  0.56790395  0.27464470  0.87716708    -0.02100
C3007       C  0.56478821  0.28752138  0.84549787     0.02800
C3008       C  0.56566490  0.32099512  0.84075468    -0.05000
C3009       C  0.57501466  0.34060203  0.86777230    -0.02100
C3010       C  0.57796109  0.32733388  0.89920387     0.02800
C3011       C  0.55352148  0.24440440  0.88367812     0.37500
C3012       C  0.58159946  0.37469824  0.86403183     0.37500
C3013       C  0.57778378  0.34823762  0.92719703     0.35900
C3014       C  0.56134869  0.26630114  0.81792324     0.35900
N3015       N  0.57528408  0.36500135  0.94932467    -0.39500
N3016       N  0.55918528  0.24972975  0.79546233    -0.38900
N3017       N  0.58665557  0.40195356  0.86212939    -0.38400
N3018       N  0.53908102  0.22166732  0.88924493    -0.38400
C3019       C  0.53482201  0.33167979  0.64582786    -0.05000
C3020       C  0.52430414  0.34274446  0.61415905    -0.02100
C3021       C  0.53511905  0.32647400  0.58593791     0.02800
C3022       C  0.56277095  0.30690183  0.58881452    -0.05000
C3023       C  0.57853990  0.30663889  0.61961161    -0.02100
C3024       C  0.56118278  0.31062554  0.64735090     0.02800
C3025       C  0.50917548  0.37393683  0.60953744     0.37500
C3026       C  0.61212460  0.31471611  0.62320142     0.37500
C3027       C  0.57525684  0.29882742  0.67768314     0.35900
C3028       C  0.52138454  0.33382901  0.55417877     0.35900
N3029       N  0.58633973  0.28939618  0.70193660    -0.38900
N3030       N  0.51068832  0.33974780  0.52866280    -0.38900
N3031       N  0.63845700  0.32169085  0.62831766    -0.38400
N3032       N  0.00497021  0.39975254  0.60717769    -0.38400
C3033       C  0.58185688  0.17574222  0.91949875    -0.05000
C3034       C  0.59701266  0.18405789  0.88963604    -0.02100
C3035       C  0.58282153  0.17598956  0.85937042     0.02800
C3036       C  0.55396426  0.15918231  0.85805053    -0.05000
C3037       C  0.54139496  0.14685578  0.88742046    -0.02100
C3038       C  0.55484929  0.15560967  0.91785774     0.02800
C3039       C  0.62497991  0.20437098  0.88808065     0.37500
C3040       C  0.51470000  0.12469252  0.88694727     0.37500
C3041       C  0.53952020  0.14514248  0.94720874     0.35900
C3042       C  0.59756524  0.18605798  0.82943831     0.35900
N3043       N  0.52699495  0.13655753  0.97037000    -0.38900
N3044       N  0.60942048  0.19454736  0.80587125    -0.38900
N3045       N  0.01064454  0.11462618  0.88268028    -0.38400
N3046       N  0.64615825  0.22132167  0.88320040    -0.38400
C3047       C  0.56891853  0.19275838  0.59033483    -0.05000
C3048       C  0.57252555  0.20689024  0.62149622    -0.02100
C3049       C  0.55702429  0.19419749  0.64830440     0.02800
C3050       C  0.54155566  0.16407852  0.64608739    -0.05000
C3051       C  0.53758120  0.14973140  0.61489701    -0.02100
C3052       C  0.55041808  0.16452968  0.58712500     0.02800
C3053       C  0.59622969  0.23132963  0.62815829     0.37500
C3054       C  0.52133522  0.11920403  0.61089549     0.37500
C3055       C  0.54681803  0.14890059  0.55581003     0.35900
C3056       C  0.55979538  0.21146222  0.67894383     0.35900
N3057       N  0.54390140  0.13624559  0.53095845    -0.38900
N3058       N  0.56247390  0.22432302  0.70370698    -0.38900
N3059       N  0.50858789  0.09478333  0.60732013    -0.38400
N3060       N  0.61712108  0.24816633  0.63526258    -0.38400
O3061       O  0.57339851  0.71910484  0.03336064    -0.79800
O3062       O  0.57732636  0.77621514  0.46027743    -0.79800
O3063       O  0.60856648  0.78423986  0.06989978    -0.79900
O3064       O  0.63436051  0.72075167  0.43181230    -0.79800
O3065       O  0.56946553  0.79086426  0.03303798    -0.79900
O3066       O  0.59216724  0.70162584  0.45679716    -0.79800
O3067       O  0.62111937  0.76740974  0.43191872    -0.79800
O3068       O  0.61233382  0.72222811  0.06993865    -0.79900
C3069       C  0.58298465  0.71815992  0.06327849     1.09900
C3070       C  0.59129577  0.77460889  0.43307786     1.09700
C3071       C  0.58045905  0.79350886  0.06226870     1.09900
C3072       C  0.60954668  0.70337127  0.43151775     1.09800
O3073       O  0.63949718  0.67593423  0.48217226    -0.79800
O3074       O  0.62671174  0.82465556  0.03100545    -0.79900
O3075       O  0.67391130  0.72031254  0.04400826    -0.79800
O3076       O  0.67808886  0.78678447  0.46403948    -0.79800
O3077       O  0.63323111  0.81592424  0.46585127    -0.79900
O3078       O  0.63442806  0.68626750  0.03242354    -0.79800
O3079       O  0.67891699  0.70754269  0.46698567    -0.79800
O3080       O  0.66857611  0.79398428  0.04529656    -0.79900
Co3081     Co  0.60890590  0.71286867  0.00101696     1.51500
Co3082     Co  0.60178360  0.79680903  0.49687270     1.51700
Co3083     Co  0.64146333  0.75539150  0.05384378     1.51600
Co3084     Co  0.65087200  0.74859536  0.46678049     1.51500
O3085       O  0.62388198  0.75715289  0.00807006    -1.41800
C3086       C  0.66699879  0.67893553  0.46965155     1.09800
C3087       C  0.65362885  0.82125844  0.04558567     1.09900
C3088       C  0.66260702  0.69149705  0.04369172     1.09800
C3089       C  0.66319907  0.81364327  0.46076700     1.09800
O3090       O  0.87866629  0.72083053  0.06916812    -0.79800
O3091       O  0.88310258  0.78158916  0.43199211    -0.79800
O3092       O  0.93299581  0.71868208  0.47253346    -0.79900
O3093       O  0.92207369  0.78783615  0.03985585    -0.79800
O3094       O  0.89567131  0.72053991  0.43365631    -0.79900
O3095       O  0.87851197  0.78269835  0.06904244    -0.79800
O3096       O  0.92318085  0.78540526  0.46677731    -0.79800
O3097       O  0.92288285  0.72190436  0.04187845    -0.79900
C3098       C  0.90903150  0.71689999  0.06815416     1.09900
C3099       C  0.91225486  0.78668682  0.43753063     1.09700
C3100       C  0.92472520  0.71524132  0.44266160     1.09900
C3101       C  0.90811204  0.78832657  0.06756823     1.09800
O3102       O  0.82259348  0.79226397  0.02910352    -0.79800
O3103       O  0.83315858  0.70761509  0.46066825    -0.79900
O3104       O  0.86248933  0.68416001  0.02882437    -0.79800
O3105       O  0.85873518  0.81562253  0.46881627    -0.79800
O3106       O  0.82336106  0.77618177  0.46213615    -0.79900
O3107       O  0.82142046  0.71850788  0.02731753    -0.79800
O3108       O  0.86521754  0.82237304  0.02984919    -0.79800
O3109       O  0.87744711  0.68038632  0.46857140    -0.79900
Co3110     Co  0.85064527  0.75321349  0.04378567     1.51500
Co3111     Co  0.85867071  0.74660571  0.45176086     1.51700
Co3112     Co  0.89832125  0.70606982  0.00382210     1.51600
Co3113     Co  0.89219334  0.79771767  0.50129463     1.51500
O3114       O  0.87541543  0.75128704  0.99989108    -1.41800
C3115       C  0.83534199  0.82051647  0.03204322     1.09800
C3116       C  0.84914863  0.68174398  0.45758552     1.09900
C3117       C  0.83229669  0.68971411  0.03085214     1.09800
C3118       C  0.83086089  0.80567729  0.45969937     1.09800
O3119       O  0.71241017  0.53781065  0.17410669    -0.79800
O3120       O  0.77837796  0.93505240  0.16677982    -0.79800
O3121       O  0.67810587  0.97666886  0.13390129    -0.79900
O3122       O  0.81602465  0.52896025  0.13958799    -0.79800
O3123       O  0.71307029  0.95645005  0.16924706    -0.79900
O3124       O  0.78091975  0.53645989  0.17780645    -0.79800
O3125       O  0.80853439  0.96651270  0.13519250    -0.79800
O3126       O  0.67887123  0.53850200  0.13239436    -0.79900
C3127       C  0.68436143  0.54230014  0.16255986     1.09900
C3128       C  0.80564749  0.94299745  0.15595693     1.09700
C3129       C  0.68380191  0.96058313  0.15909765     1.09900
C3130       C  0.80967131  0.53767674  0.16821996     1.09800
O3131       O  0.78148174  0.57245197  0.11996111    -0.79800
O3132       O  0.72863674  0.93817595  0.11758347    -0.79900
O3133       O  0.71106580  0.53927898  0.07145369    -0.79800
O3134       O  0.78076753  0.97147027  0.06944621    -0.79800
O3135       O  0.76569881  0.93704282  0.10657093    -0.79900
O3136       O  0.71880645  0.57347455  0.11248300    -0.79800
O3137       O  0.78600230  0.54238870  0.07689062    -0.79800
O3138       O  0.70606924  0.96560339  0.07664947    -0.79900
Co3139     Co  0.74778038  0.55120346  0.14541236     1.51500
Co3140     Co  0.75474888  0.96826512  0.14537084     1.51700
Co3141     Co  0.69820858  0.50546112  0.10316552     1.51600
Co3142     Co  0.79278239  0.50223510  0.10586852     1.51500
O3143       O  0.74520841  0.50731592  0.12222004    -1.41800
C3144       C  0.78677677  0.57050770  0.09012060     1.09800
C3145       C  0.70900402  0.93935098  0.09322129     1.09900
C3146       C  0.71087789  0.56793779  0.08285619     1.09800
C3147       C  0.77728188  0.94219881  0.07836754     1.09800
O3148       O  0.68793924  0.52657981  0.35971270    -0.79800
O3149       O  0.82265699  0.97569841  0.37320016    -0.79800
O3150       O  0.79550273  0.53038929  0.32884260    -0.79900
O3151       O  0.71852256  0.95433968  0.31517796    -0.79800
O3152       O  0.82460720  0.51089737  0.37130105    -0.79900
O3153       O  0.68656466  0.96445947  0.35623020    -0.79800
O3154       O  0.79681516  0.95268921  0.33030364    -0.79800
O3155       O  0.71847091  0.54111076  0.31949118    -0.79900
C3156       C  0.69098051  0.54017379  0.33237558     1.09900
C3157       C  0.82258272  0.95782258  0.34721512     1.09700
C3158       C  0.82274742  0.52578576  0.34324389     1.09900
C3159       C  0.69050698  0.95545934  0.32706024     1.09800
O3160       O  0.71758383  0.95778692  0.41762151    -0.79800
O3161       O  0.79913213  0.54246282  0.40873091    -0.79900
O3162       O  0.73250478  0.56335294  0.38288140    -0.79800
O3163       O  0.77520075  0.91945507  0.36888578    -0.79800
O3164       O  0.79041718  0.94648601  0.41288462    -0.79900
O3165       O  0.71724186  0.53011049  0.42134604    -0.79800
O3166       O  0.72771282  0.92650862  0.37570325    -0.79800
O3167       O  0.78044243  0.57097275  0.36697831    -0.79900
Co3168     Co  0.70792778  0.49382102  0.38938943     1.51500
Co3169     Co  0.79214536  0.49430477  0.40566602     1.51700
Co3170     Co  0.75452970  0.53481184  0.35140524     1.51600
Co3171     Co  0.75324674  0.95624443  0.34885259     1.51500
O3172       O  0.75381731  0.49436680  0.37400904    -1.41800
C3173       C  0.71833695  0.92965533  0.40459085     1.09800
C3174       C  0.79709990  0.56904394  0.39303472     1.09900
C3175       C  0.71978316  0.55909256  0.41022790     1.09800
C3176       C  0.78764234  0.92007115  0.39716869     1.09800
O3177       O  0.53508724  0.67423229  0.20889040    -0.79800
O3178       O  0.96918611  0.67645933  0.29315323    -0.79800
O3179       O  0.97659233  0.63591991  0.18558657    -0.79900
O3180       O  0.53728565  0.63002157  0.31630951    -0.79800
O3181       O  0.96392586  0.67851330  0.21727809    -0.79900
O3182       O  0.54881555  0.67334779  0.28796201    -0.79800
O3183       O  0.97336594  0.63250443  0.32324826    -0.79800
O3184       O  0.51949540  0.63332497  0.17816087    -0.79900
C3185       C  0.53147772  0.66154319  0.18059911     1.09900
C3186       C  0.96772779  0.66259522  0.32107521     1.09700
C3187       C  0.96409056  0.66455765  0.18911459     1.09900
C3188       C  0.55072960  0.65692065  0.31435094     1.09800
O3189       O  0.56997665  0.61759512  0.26792265    -0.79800
O3190       O  0.92412594  0.62891105  0.22205343    -0.79900
O3191       O  0.53776737  0.58064119  0.20565853    -0.79800
O3192       O  0.96525903  0.57550824  0.28562696    -0.79800
O3193       O  0.93267165  0.61817900  0.28506306    -0.79900
O3194       O  0.56715573  0.62268367  0.22089913    -0.79800
O3195       O  0.54027004  0.57524693  0.28009140    -0.79800
O3196       O  0.95069463  0.58538715  0.21010825    -0.79900
Co3197     Co  0.53704147  0.64707061  0.24901298     1.51500
Co3198     Co  0.95199998  0.65010334  0.25480295     1.51700
Co3199     Co  0.49701521  0.60683881  0.21189373     1.51600
Co3200     Co  0.00236446  0.60424092  0.29765912     1.51500
O3201       O  0.99557833  0.62592991  0.25330943    -1.41800
C3202       C  0.56812960  0.58878692  0.27798161     1.09800
C3203       C  0.92478441  0.60145155  0.20975759     1.09900
C3204       C  0.56501787  0.59509036  0.20737561     1.09800
C3205       C  0.93710180  0.58789469  0.28885302     1.09800
O3206       O  0.51264704  0.87320108  0.17842736    -0.79800
O3207       O  0.97888866  0.86290476  0.32698834    -0.79800
O3208       O  0.54551884  0.81876586  0.28334816    -0.79900
O3209       O  0.96072666  0.82273249  0.22060137    -0.79800
O3210       O  0.54112939  0.86047692  0.31656825    -0.79900
O3211       O  0.96925881  0.86530104  0.18966032    -0.79800
O3212       O  0.97183280  0.82165701  0.29400487    -0.79800
O3213       O  0.52751621  0.82835762  0.20459247    -0.79900
C3214       C  0.52426545  0.84469783  0.17801336     1.09900
C3215       C  0.97315334  0.83334641  0.32274229     1.09700
C3216       C  0.55054968  0.83181793  0.31119348     1.09900
C3217       C  0.95907609  0.83683264  0.19253324     1.09800
O3218       O  0.95379278  0.92086692  0.21226682    -0.79800
O3219       O  0.54170768  0.91879834  0.28224348    -0.79900
O3220       O  0.56633790  0.87219920  0.21956296    -0.79800
O3221       O  0.93515863  0.88081933  0.29368138    -0.79800
O3222       O  0.96955078  0.92176020  0.29406555    -0.79900
O3223       O  0.53772483  0.91680285  0.20965937    -0.79800
O3224       O  0.92671066  0.87888159  0.23060884    -0.79800
O3225       O  0.56943627  0.87620834  0.26684454    -0.79900
Co3226     Co  0.49401582  0.89534054  0.21667179     1.51500
Co3227     Co  0.50744881  0.89188628  0.30162841     1.51700
Co3228     Co  0.53471792  0.84974452  0.24760048     1.51600
Co3229     Co  0.95224849  0.85081559  0.26000888     1.51500
O3230       O  0.49567124  0.87263098  0.25800965    -1.41800
C3231       C  0.92743094  0.90504764  0.21500310     1.09800
C3232       C  0.56883849  0.90463221  0.27797061     1.09900
C3233       C  0.56467655  0.90075517  0.20804769     1.09800
C3234       C  0.94182558  0.91017417  0.29976454     1.09800
C3235       C  0.85438062  0.94635312  0.33601431    -0.05000
C3236       C  0.86641076  0.95798289  0.30672826    -0.02100
C3237       C  0.89853343  0.95167669  0.29854279     0.02800
C3238       C  0.91645635  0.92883822  0.31608270    -0.05000
C3239       C  0.90561088  0.91900894  0.34655707    -0.02100
C3240       C  0.87530325  0.92890710  0.35719118     0.02800
C3241       C  0.84582748  0.97885800  0.28783791     0.37500
C3242       C  0.92733405  0.90312642  0.36919820     0.37500
C3243       C  0.86702670  0.92267582  0.39057021     0.35900
C3244       C  0.91690520  0.97434638  0.28062515     0.35900
N3245       N  0.86213055  0.91797759  0.41766397    -0.38900
N3246       N  0.93445950  0.99270287  0.26996584    -0.38900
N3247       N  0.94372717  0.89222350  0.38939112    -0.38400
N3248       N  0.82629852  0.99568968  0.27683195    -0.38400
C3249       C  0.60083515  0.91908830  0.28655916    -0.05000
C3250       C  0.60312648  0.95085302  0.29773771    -0.02100
C3251       C  0.63117138  0.96044378  0.31427702     0.02800
C3252       C  0.66084959  0.94421350  0.30938010    -0.05000
C3253       C  0.65961990  0.91367291  0.29462679    -0.02100
C3254       C  0.62944566  0.89961634  0.28776174     0.02800
C3255       C  0.57555526  0.97226759  0.29700992     0.37500
C3256       C  0.68854259  0.89451966  0.29106443     0.37500
C3257       C  0.62804360  0.86464573  0.28784248     0.35900
C3258       C  0.62623233  0.97863121  0.34350462     0.35900
N3259       N  0.62701953  0.83679740  0.28883867    -0.38900
N3260       N  0.62513450  0.48880303  0.36839426    -0.38900
N3261       N  0.71109481  0.87866735  0.28763005    -0.38400
N3262       N  0.55341163  0.98915919  0.29638742    -0.38400
C3263       C  0.85284835  0.53907136  0.32779621    -0.05000
C3264       C  0.88458863  0.53162300  0.33954937    -0.02100
C3265       C  0.91199024  0.54431475  0.32410924     0.02800
C3266       C  0.90859185  0.56891746  0.30037309    -0.05000
C3267       C  0.87685029  0.57962266  0.29234603    -0.02100
C3268       C  0.84987351  0.56262380  0.30276472     0.02800
C3269       C  0.88988008  0.51314975  0.36907109     0.37500
C3270       C  0.87080699  0.61100950  0.27786380     0.37500
C3271       C  0.81892992  0.57143474  0.28822099     0.35900
C3272       C  0.94377648  0.53454743  0.33553351     0.35900
N3273       N  0.79445961  0.57850318  0.27633248    -0.38900
N3274       N  0.96905237  0.52655035  0.34465664    -0.38900
N3275       N  0.86538793  0.63688753  0.26875544    -0.38400
N3276       N  0.89492485  0.49920820  0.39303029    -0.38400
C3277       C  0.66066335  0.55492747  0.31775693    -0.05000
C3278       C  0.65897244  0.57003892  0.28719154    -0.02100
C3279       C  0.62961731  0.58415901  0.27635083     0.02800
C3280       C  0.59972469  0.57424707  0.28970398    -0.05000
C3281       C  0.60179239  0.55922942  0.32034883    -0.02100
C3282       C  0.63203535  0.55501546  0.33596310     0.02800
C3283       C  0.68775499  0.57564307  0.26908197     0.37500
C3284       C  0.57315011  0.55240841  0.33817630     0.37500
C3285       C  0.63354461  0.55650792  0.37117865     0.35900
C3286       C  0.63234942  0.61454175  0.25942252     0.35900
N3287       N  0.63461951  0.55793318  0.39922361    -0.38900
N3288       N  0.63570513  0.63990986  0.24841983    -0.38900
N3289       N  0.55058142  0.54643079  0.35263369    -0.38400
N3290       N  0.71044100  0.58052689  0.25437333    -0.38400
C3291       C  0.83550359  0.93035088  0.17106726    -0.05000
C3292       C  0.84658240  0.89875693  0.16818210    -0.02100
C3293       C  0.87507032  0.88964297  0.18515988     0.02800
C3294       C  0.89626828  0.91376499  0.19818967    -0.05000
C3295       C  0.88531952  0.94556227  0.19822816    -0.02100
C3296       C  0.85324897  0.95217105  0.18945705     0.02800
C3297       C  0.82855695  0.87568624  0.14898959     0.37500
C3298       C  0.90828555  0.97061715  0.20289619     0.37500
C3299       C  0.83416478  0.97589183  0.20531393     0.35900
C3300       C  0.87995453  0.85565561  0.19120094     0.35900
N3301       N  0.81108934  0.48987333  0.21850451    -0.38900
N3302       N  0.88144067  0.82845364  0.19698945    -0.38900
N3303       N  0.92430782  0.47848443  0.20666885    -0.38400
N3304       N  0.81484650  0.85696316  0.13336068    -0.38400
C3305       C  0.59546299  0.91508949  0.19491739    -0.05000
C3306       C  0.62660958  0.90061847  0.20048207    -0.02100
C3307       C  0.65527144  0.91668056  0.19177282     0.02800
C3308       C  0.65398853  0.94550546  0.17374162    -0.05000
C3309       C  0.62250781  0.95794883  0.16525997    -0.02100
C3310       C  0.59417923  0.94295644  0.17569466     0.02800
C3311       C  0.63016465  0.86767463  0.21121200     0.37500
C3312       C  0.61798329  0.98638953  0.14544900     0.37500
C3313       C  0.56322812  0.95469683  0.16332364     0.35900
C3314       C  0.68624021  0.90224259  0.20022525     0.35900
N3315       N  0.53871629  0.96353138  0.15307996    -0.38900
N3316       N  0.71068809  0.89071034  0.20726128    -0.38900
N3317       N  0.61283443  0.00882988  0.12937169    -0.38400
N3318       N  0.63523402  0.84112430  0.21855616    -0.38400
C3319       C  0.89414012  0.58782209  0.19569276    -0.05000
C3320       C  0.89316931  0.55595501  0.18428690    -0.02100
C3321       C  0.86593980  0.53830195  0.19090957     0.02800
C3322       C  0.83597091  0.55364671  0.18749324    -0.05000
C3323       C  0.83504350  0.58711649  0.19321435    -0.02100
C3324       C  0.86416688  0.60442885  0.19709734     0.02800
C3325       C  0.92136404  0.53941233  0.17300850     0.37500
C3326       C  0.80462598  0.60263103  0.19875256     0.37500
C3327       C  0.86307865  0.63924419  0.19813034     0.35900
C3328       C  0.87112374  0.52595889  0.22299718     0.35900
N3329       N  0.86227459  0.66709086  0.19852586    -0.38900
N3330       N  0.87824083  0.02526839  0.24774942    -0.38900
N3331       N  0.78039997  0.61446758  0.20497778    -0.38400
N3332       N  0.93758776  0.02626556  0.14669945    -0.38400
C3333       C  0.59615084  0.58087278  0.19614456    -0.05000
C3334       C  0.61983259  0.60145672  0.18305969    -0.02100
C3335       C  0.65037985  0.58947465  0.17546156     0.02800
C3336       C  0.65854721  0.55725885  0.18180233    -0.05000
C3337       C  0.63766771  0.53857214  0.20018509    -0.02100
C3338       C  0.60578136  0.54925202  0.20513604     0.02800
C3339       C  0.61468995  0.63582130  0.18006483     0.37500
C3340       C  0.65035047  0.51085239  0.21764680     0.37500
C3341       C  0.58353942  0.52824067  0.22087528     0.35900
C3342       C  0.67439733  0.61097799  0.16299279     0.35900
N3343       N  0.56541878  0.51146480  0.23306398    -0.38900
N3344       N  0.69325864  0.62866037  0.15347490    -0.38900
N3345       N  0.65408360  0.99273569  0.22891411    -0.38400
N3346       N  0.61291228  0.66356638  0.17947785    -0.38400
C3347       C  0.81806123  0.85258837  0.03919136    -0.05000
C3348       C  0.83262418  0.88309015  0.03247329    -0.02100
C3349       C  0.81937531  0.91261128  0.04424354     0.02800
C3350       C  0.78891669  0.91324894  0.05845017    -0.05000
C3351       C  0.77174296  0.88403261  0.05701385    -0.02100
C3352       C  0.78792338  0.85400923  0.05357410     0.02800
C3353       C  0.86076976  0.88480738  0.01269162     0.37500
C3354       C  0.74130201  0.88603395  0.04016625     0.37500
C3355       C  0.77249779  0.82431745  0.06197847     0.35900
C3356       C  0.83685092  0.94236943  0.04090050     0.35900
N3357       N  0.76196291  0.79930955  0.06752059    -0.38900
N3358       N  0.85070127  0.96618293  0.03803220    -0.38900
N3359       N  0.71790558  0.88726601  0.02459431    -0.38400
N3360       N  0.88297672  0.88645649  0.99656958    -0.38400
C3361       C  0.79450940  0.60236575  0.07304450    -0.05000
C3362       C  0.79096643  0.63285585  0.08923608    -0.02100
C3363       C  0.80188302  0.66195672  0.07514493     0.02800
C3364       C  0.81164015  0.66253919  0.04286087    -0.05000
C3365       C  0.80720086  0.63410096  0.02481783    -0.02100
C3366       C  0.80434898  0.60383780  0.04059625     0.02800
C3367       C  0.77497477  0.63565152  0.11974554     0.37500
C3368       C  0.79070363  0.63753545  0.99395275     0.37500
C3369       C  0.80949963  0.57454154  0.02258721     0.35900
C3370       C  0.80213367  0.69166486  0.09356600     0.35900
N3371       N  0.81327315  0.55063608  0.00884397    -0.38900
N3372       N  0.80208221  0.71545628  0.10808310    -0.38900
N3373       N  0.77934480  0.63490002  0.46862858    -0.38400
N3374       N  0.76167592  0.63925647  0.14369482    -0.38400
C3375       C  0.79628132  0.88869695  0.41250426    -0.05000
C3376       C  0.78696791  0.88162325  0.44447307    -0.02100
C3377       C  0.79101076  0.85021867  0.45678680     0.02800
C3378       C  0.81033734  0.82824877  0.44069967    -0.05000
C3379       C  0.81719389  0.83384424  0.40804277    -0.02100
C3380       C  0.80976132  0.86375734  0.39362881     0.02800
C3381       C  0.77250909  0.90613511  0.46434096     0.37500
C3382       C  0.82863713  0.80772030  0.38832329     0.37500
C3383       C  0.81676760  0.86869463  0.35965439     0.35900
C3384       C  0.76686578  0.83692275  0.47704694     0.35900
N3385       N  0.82207343  0.87219648  0.33245795    -0.38900
N3386       N  0.75161164  0.82439812  0.99462727    -0.38900
N3387       N  0.83626486  0.78709303  0.37140112    -0.38400
N3388       N  0.76163902  0.92655923  0.47968102    -0.38400
C3389       C  0.81446028  0.59796505  0.40600702    -0.05000
C3390       C  0.83673189  0.59465985  0.43239849    -0.02100
C3391       C  0.84779490  0.62198608  0.44908209     0.02800
C3392       C  0.83765947  0.65330308  0.43905061    -0.05000
C3393       C  0.81903642  0.65679161  0.41021319    -0.02100
C3394       C  0.80862155  0.62927054  0.39305659     0.02800
C3395       C  0.84952837  0.56337124  0.44218899     0.37500
C3396       C  0.81078025  0.68860454  0.39786536     0.37500
C3397       C  0.79468102  0.63356410  0.36077411     0.35900
C3398       C  0.86651817  0.61718998  0.47902815     0.35900
N3399       N  0.78464981  0.63724023  0.33459752    -0.38900
N3400       N  0.88144001  0.61417649  0.00631768    -0.38900
N3401       N  0.80395037  0.71392450  0.38800123    -0.38400
N3402       N  0.86001942  0.53863729  0.45022182    -0.38400
C3403       C  0.96297240  0.81546350  0.35205349    -0.05000
C3404       C  0.97321405  0.82615694  0.38349738    -0.02100
C3405       C  0.95640796  0.81727513  0.41129273     0.02800
C3406       C  0.93155026  0.79478575  0.40880260    -0.05000
C3407       C  0.92330590  0.78175827  0.37766973    -0.02100
C3408       C  0.93795980  0.79305218  0.34954077     0.02800
C3409       C  0.99830088  0.84985478  0.38753506     0.37500
C3410       C  0.90047335  0.75580453  0.37368045     0.37500
C3411       C  0.92556142  0.78288158  0.31794541     0.35900
C3412       C  0.96398088  0.83243495  0.44222503     0.35900
N3413       N  0.91549322  0.77476888  0.29288388    -0.38900
N3414       N  0.96985497  0.84481840  0.46673856    -0.38900
N3415       N  0.88294107  0.73480053  0.36891763    -0.38400
N3416       N  0.01623644  0.87061406  0.39144697    -0.38400
C3417       C  0.94567750  0.82286479  0.16102317    -0.05000
C3418       C  0.93154688  0.79234356  0.15889401    -0.02100
C3419       C  0.91684253  0.78250732  0.12916359     0.02800
C3420       C  0.92348529  0.79864479  0.09923960    -0.05000
C3421       C  0.93682824  0.82940818  0.10156380    -0.02100
C3422       C  0.94320731  0.84279086  0.13246081     0.02800
C3423       C  0.92777003  0.77310531  0.18797379     0.37500
C3424       C  0.93835567  0.84962413  0.07281683     0.37500
C3425       C  0.94032009  0.87759365  0.13481314     0.35900
C3426       C  0.89192369  0.75857086  0.13103068     0.35900
N3427       N  0.93743822  0.90529442  0.13613689    -0.38900
N3428       N  0.87164780  0.74007846  0.13413198    -0.38900
N3429       N  0.93934401  0.86598267  0.05010278    -0.38400
N3430       N  0.92458315  0.75763243  0.21104122    -0.38400
C3431       C  0.95722229  0.67862945  0.35235001    -0.05000
C3432       C  0.93952801  0.66002257  0.37448463    -0.02100
C3433       C  0.93676274  0.66919517  0.40708666     0.02800
C3434       C  0.94562103  0.69984496  0.41765840    -0.05000
C3435       C  0.96430285  0.71830786  0.39678782    -0.02100
C3436       C  0.96924189  0.70840890  0.36389848     0.02800
C3437       C  0.92073945  0.63283543  0.36375697     0.37500
C3438       C  0.98247035  0.74395723  0.41162456     0.37500
C3439       C  0.98392346  0.72977384  0.34127185     0.35900
C3440       C  0.93014766  0.64490752  0.43097965     0.35900
N3441       N  0.99399653  0.74709393  0.32217356    -0.38900
N3442       N  0.92746017  0.62432733  0.44957680    -0.38900
N3443       N  0.99807891  0.76280275  0.42511005    -0.38400
N3444       N  0.90407249  0.61173073  0.35696915    -0.38400
C3445       C  0.92677531  0.70266197  0.09672718    -0.05000
C3446       C  0.91643730  0.67318424  0.10905972    -0.02100
C3447       C  0.93142947  0.66003949  0.13692487     0.02800
C3448       C  0.95089186  0.67929474  0.15797491    -0.05000
C3449       C  0.96173219  0.70880991  0.14524444    -0.02100
C3450       C  0.95273978  0.71811386  0.11295117     0.02800
C3451       C  0.89310457  0.65396049  0.09116153     0.37500
C3452       C  0.98273098  0.72907520  0.16448114     0.37500
C3453       C  0.97113312  0.74211863  0.09623052     0.35900
C3454       C  0.93134363  0.62538683  0.13896381     0.35900
N3455       N  0.98646432  0.76080529  0.08287100    -0.38900
N3456       N  0.93219185  0.59771379  0.13658159    -0.38900
N3457       N  0.99864755  0.74613965  0.17991626    -0.38400
N3458       N  0.87511222  0.63719403  0.07794435    -0.38400
C3459       C  0.70722388  0.89951885  0.42119948    -0.05000
C3460       C  0.68751291  0.90160539  0.44833122    -0.02100
C3461       C  0.67127037  0.87417305  0.45909547     0.02800
C3462       C  0.67944378  0.84289204  0.44806589    -0.05000
C3463       C  0.70085109  0.84022768  0.42244126    -0.02100
C3464       C  0.71281675  0.86820886  0.40764153     0.02800
C3465       C  0.68201996  0.93214685  0.46445332     0.37500
C3466       C  0.70794971  0.80882782  0.40877573     0.37500
C3467       C  0.72897319  0.86367597  0.37722408     0.35900
C3468       C  0.64298834  0.87988618  0.47751341     0.35900
N3469       N  0.74105974  0.85902977  0.35273434    -0.38900
N3470       N  0.61948709  0.88702881  0.48977312    -0.38900
N3471       N  0.71362648  0.78391997  0.39770505    -0.38400
N3472       N  0.67776170  0.95618221  0.47787122    -0.38400
C3473       C  0.68281582  0.64835504  0.45655514    -0.05000
C3474       C  0.70189666  0.64936648  0.42876616    -0.02100
C3475       C  0.71007913  0.62062286  0.41221288     0.02800
C3476       C  0.70663241  0.58948397  0.42682060    -0.05000
C3477       C  0.68761996  0.58834822  0.45475823    -0.02100
C3478       C  0.67449923  0.61707760  0.46826589     0.02800
C3479       C  0.71149214  0.67999145  0.41526025     0.37500
C3480       C  0.67939483  0.55753426  0.46872035     0.37500
C3481       C  0.65155367  0.61371584  0.49386452     0.35900
C3482       C  0.71564427  0.62366031  0.37773596     0.35900
N3483       N  0.63280735  0.61083822  0.51382931    -0.38900
N3484       N  0.71818423  0.62598635  0.34994446    -0.38900
N3485       N  0.67251282  0.53319697  0.48022901    -0.38400
N3486       N  0.71988157  0.70407953  0.40430756    -0.38400
C3487       C  0.69192795  0.90848867  0.08608224    -0.05000
C3488       C  0.66159249  0.90869537  0.07066756    -0.02100
C3489       C  0.64653831  0.87923443  0.06397598     0.02800
C3490       C  0.66475536  0.85004209  0.06459764    -0.05000
C3491       C  0.69123900  0.84895694  0.08612551    -0.02100
C3492       C  0.70363120  0.87805157  0.09867971     0.02800
C3493       C  0.64461462  0.93874232  0.06431593     0.37500
C3494       C  0.70225901  0.81823270  0.09920161     0.37500
C3495       C  0.72815986  0.87564591  0.12410433     0.35900
C3496       C  0.61178156  0.87888120  0.06253473     0.35900
N3497       N  0.74718997  0.87302663  0.14482854    -0.38900
N3498       N  0.58408178  0.87949198  0.06161146    -0.38900
N3499       N  0.70998125  0.79375815  0.11055028    -0.38400
N3500       N  0.63105573  0.96270639  0.05920251    -0.38400
C3501       C  0.67952930  0.66205783  0.05644126    -0.05000
C3502       C  0.66174572  0.64187351  0.07684505    -0.02100
C3503       C  0.66831062  0.60884300  0.07915689     0.02800
C3504       C  0.69567552  0.59572471  0.06532896    -0.05000
C3505       C  0.71262738  0.61474113  0.04343622    -0.02100
C3506       C  0.70521138  0.64818511  0.03961317     0.02800
C3507       C  0.63545455  0.65444526  0.09501939     0.37500
C3508       C  0.73104753  0.59772386  0.01991058     0.37500
C3509       C  0.72244714  0.66841767  0.01763014     0.35900
C3510       C  0.64471916  0.58768864  0.09277997     0.35900
N3511       N  0.73524410  0.68624772  0.00079535    -0.38900
N3512       N  0.62466315  0.57169697  0.10272264    -0.38900
N3513       N  0.74347615  0.58256190  0.00033281    -0.38400
N3514       N  0.61418206  0.66269330  0.11026446    -0.38400
C3515       C  0.57609807  0.78813432  0.40287970    -0.05000
C3516       C  0.56758648  0.76875852  0.37610779    -0.02100
C3517       C  0.56445209  0.78198426  0.34447762     0.02800
C3518       C  0.56662100  0.81543661  0.33987758    -0.05000
C3519       C  0.57697032  0.83452323  0.36677506    -0.02100
C3520       C  0.57872180  0.82131911  0.39815596     0.02800
C3521       C  0.55381522  0.73801097  0.38235304     0.37500
C3522       C  0.58614480  0.86795730  0.36284468     0.37500
C3523       C  0.57792458  0.84231139  0.42604429     0.35900
C3524       C  0.56000535  0.76132609  0.31663253     0.35900
N3525       N  0.57477911  0.85891077  0.44819757    -0.39500
N3526       N  0.55685127  0.74559828  0.29366311    -0.38900
N3527       N  0.59354464  0.89461995  0.36059765    -0.38400
N3528       N  0.54049060  0.71445895  0.38771733    -0.38400
C3529       C  0.53504869  0.83132371  0.14684406    -0.05000
C3530       C  0.52375576  0.84224374  0.11548007    -0.02100
C3531       C  0.53486827  0.82666905  0.08722516     0.02800
C3532       C  0.56365233  0.80891901  0.08974835    -0.05000
C3533       C  0.57979284  0.80883692  0.12042565    -0.02100
C3534       C  0.56261948  0.81198845  0.14829800     0.02800
C3535       C  0.50834908  0.87331732  0.11105630     0.37500
C3536       C  0.61353085  0.81627956  0.12407431     0.37500
C3537       C  0.57783817  0.80187513  0.17873059     0.35900
C3538       C  0.52012227  0.83332969  0.05574178     0.35900
N3539       N  0.58967687  0.79411773  0.20320947    -0.38900
N3540       N  0.50848060  0.83875197  0.03052315    -0.38900
N3541       N  0.63992672  0.82277963  0.12955825    -0.38400
N3542       N  0.00086026  0.90066989  0.10763190    -0.38400
C3543       C  0.60203151  0.68512806  0.40139806    -0.05000
C3544       C  0.61317317  0.69549174  0.37073696    -0.02100
C3545       C  0.59742104  0.68533850  0.34195583     0.02800
C3546       C  0.57046400  0.66529122  0.34375030    -0.05000
C3547       C  0.56435903  0.64976446  0.37424705    -0.02100
C3548       C  0.58149652  0.65869216  0.40243425     0.02800
C3549       C  0.63974788  0.71753567  0.36833295     0.37500
C3550       C  0.53909163  0.62627581  0.37822009     0.37500
C3551       C  0.57757985  0.64083913  0.43247513     0.35900
C3552       C  0.60940357  0.69547591  0.31086083     0.35900
N3553       N  0.57450390  0.62602028  0.45596871    -0.38900
N3554       N  0.61948785  0.70397172  0.28644661    -0.38900
N3555       N  0.01844011  0.60720051  0.38104480    -0.38400
N3556       N  0.66100987  0.73508028  0.36637127    -0.38400
C3557       C  0.56299055  0.70944848  0.09205395    -0.05000
C3558       C  0.57305493  0.71971689  0.12391933    -0.02100
C3559       C  0.55943254  0.70692091  0.15197745     0.02800
C3560       C  0.54001922  0.67935303  0.14991405    -0.05000
C3561       C  0.53076870  0.66812052  0.11825298    -0.02100
C3562       C  0.54006621  0.68477220  0.08986687     0.02800
C3563       C  0.60237292  0.73761458  0.12945256     0.37500
C3564       C  0.51442908  0.63770691  0.11390981     0.37500
C3565       C  0.52875157  0.67385078  0.05828126     0.35900
C3566       C  0.56943964  0.71955052  0.18350505     0.35900
N3567       N  0.51939311  0.66507889  0.03320416    -0.38900
N3568       N  0.57738429  0.72828965  0.20907219    -0.38900
N3569       N  0.50255358  0.61293187  0.10984817    -0.38400
N3570       N  0.62694704  0.74927439  0.13502314    -0.38400
O3571       O  0.57769540  0.70319581  0.53322144    -0.79800
O3572       O  0.57617880  0.78109268  0.96110888    -0.79800
O3573       O  0.60780938  0.78130906  0.56824241    -0.79900
O3574       O  0.60804925  0.71616418  0.94868891    -0.79800
O3575       O  0.56932452  0.78752382  0.53106018    -0.79900
O3576       O  0.58945393  0.67688989  0.97957055    -0.79800
O3577       O  0.61966892  0.77036599  0.93275716    -0.79800
O3578       O  0.61504653  0.71843233  0.56903603    -0.79900
C3579       C  0.58787799  0.70576299  0.56249831     1.09900
C3580       C  0.59038266  0.77949550  0.93384087     1.09700
C3581       C  0.57985330  0.79068154  0.56038721     1.09900
C3582       C  0.59335611  0.68911048  0.95135219     1.09800
O3583       O  0.65075238  0.69327339  0.98036705    -0.79800
O3584       O  0.62500292  0.82362907  0.52916791    -0.79900
O3585       O  0.67764677  0.72291022  0.54292017    -0.79800
O3586       O  0.67501356  0.78458701  0.97240679    -0.79800
O3587       O  0.63286731  0.81697529  0.96776991    -0.79900
O3588       O  0.64233832  0.68517166  0.52919713    -0.79800
O3589       O  0.67183730  0.72004229  0.94028878    -0.79800
O3590       O  0.66758245  0.79478923  0.54418861    -0.79900
Co3591     Co  0.61108882  0.70987020  0.50126136     1.51500
Co3592     Co  0.60141072  0.79990036  0.99863663     1.51700
Co3593     Co  0.64235453  0.75439623  0.55233232     1.51600
Co3594     Co  0.64457819  0.74633541  0.96744069     1.51500
O3595       O  0.62593570  0.75419152  0.50584342    -1.41800
C3596       C  0.66871392  0.69327782  0.95557436     1.09800
C3597       C  0.65191331  0.82166256  0.54379340     1.09900
C3598       C  0.66937122  0.69330359  0.54151977     1.09800
C3599       C  0.66290378  0.81298665  0.96701034     1.09800
O3600       O  0.87939409  0.71949718  0.56904245    -0.79800
O3601       O  0.88473449  0.78112642  0.93116895    -0.79800
O3602       O  0.93304096  0.71865094  0.97363231    -0.79900
O3603       O  0.92123520  0.78702112  0.54020215    -0.79800
O3604       O  0.89634037  0.72011263  0.93413678    -0.79900
O3605       O  0.87808476  0.78108586  0.56984268    -0.79800
O3606       O  0.92464185  0.78540150  0.96621382    -0.79800
O3607       O  0.92346644  0.72129559  0.54141632    -0.79900
C3608       C  0.90986601  0.71625281  0.56787501     1.09900
C3609       C  0.91382104  0.78664955  0.93690430     1.09700
C3610       C  0.92523318  0.71492702  0.94373311     1.09900
C3611       C  0.90757236  0.78708984  0.56805857     1.09800
O3612       O  0.82159657  0.79076028  0.53048314    -0.79800
O3613       O  0.83340873  0.70811375  0.96075691    -0.79900
O3614       O  0.86349064  0.68314567  0.52832849    -0.79800
O3615       O  0.86067197  0.81613982  0.96737161    -0.79800
O3616       O  0.82460255  0.77725790  0.96082738    -0.79900
O3617       O  0.82197352  0.71698941  0.52704218    -0.79800
O3618       O  0.86395526  0.82100300  0.53142111    -0.79800
O3619       O  0.87733828  0.68043978  0.96920208    -0.79900
Co3620     Co  0.85051524  0.75173336  0.54425543     1.51500
Co3621     Co  0.85953550  0.74682940  0.95137349     1.51700
Co3622     Co  0.89868542  0.70566876  0.50326238     1.51600
Co3623     Co  0.89347703  0.79824124  0.00042644     1.51500
O3624       O  0.87498392  0.75059978  0.50019805    -1.41800
C3625       C  0.83409865  0.81912997  0.53363954     1.09800
C3626       C  0.84890928  0.68175175  0.95866469     1.09900
C3627       C  0.83324714  0.68833083  0.53017726     1.09800
C3628       C  0.83265927  0.80662135  0.95829331     1.09800
O3629       O  0.71109629  0.53917333  0.67537607    -0.79800
O3630       O  0.77483535  0.93648052  0.66523862    -0.79800
O3631       O  0.67532749  0.97928993  0.63236626    -0.79900
O3632       O  0.81465350  0.53048647  0.63832613    -0.79800
O3633       O  0.71021874  0.95929618  0.66796775    -0.79900
O3634       O  0.78058885  0.53803661  0.67758084    -0.79800
O3635       O  0.80567332  0.96718715  0.63360612    -0.79800
O3636       O  0.67694913  0.54020737  0.63401636    -0.79900
C3637       C  0.68276049  0.54378233  0.66430157     1.09900
C3638       C  0.80232212  0.94399564  0.65464574     1.09700
C3639       C  0.68107155  0.96349317  0.65770666     1.09900
C3640       C  0.80906641  0.53942883  0.66706605     1.09800
O3641       O  0.77922578  0.57325977  0.61939772    -0.79800
O3642       O  0.72498104  0.94114539  0.61512171    -0.79900
O3643       O  0.70945345  0.54173702  0.57229948    -0.79800
O3644       O  0.77759690  0.97102910  0.56795131    -0.79800
O3645       O  0.76190461  0.93765456  0.60561431    -0.79900
O3646       O  0.71681905  0.57482309  0.61415776    -0.79800
O3647       O  0.78351360  0.54275286  0.57639327    -0.79800
O3648       O  0.70219316  0.96955310  0.57482717    -0.79900
Co3649     Co  0.74633688  0.55229050  0.64599431     1.51500
Co3650     Co  0.75172864  0.97003625  0.64376857     1.51700
Co3651     Co  0.69655453  0.50754416  0.60369278     1.51600
Co3652     Co  0.79096736  0.50319428  0.60541379     1.51500
O3653       O  0.74360108  0.50840149  0.62265047    -1.41800
C3654       C  0.78492084  0.57078808  0.58964520     1.09800
C3655       C  0.70550354  0.94273871  0.59058232     1.09900
C3656       C  0.70961663  0.57013486  0.58427306     1.09800
C3657       C  0.77406425  0.94196444  0.57751983     1.09800
O3658       O  0.68227455  0.52859824  0.85947278    -0.79800
O3659       O  0.82007655  0.97744225  0.87339062    -0.79800
O3660       O  0.79043062  0.53560214  0.82634948    -0.79900
O3661       O  0.71472265  0.95666990  0.81833750    -0.79800
O3662       O  0.82015757  0.51847055  0.86846499    -0.79900
O3663       O  0.68352438  0.96584925  0.86013579    -0.79800
O3664       O  0.79294108  0.95361778  0.83182985    -0.79800
O3665       O  0.71334406  0.54576518  0.82045112    -0.79900
C3666       C  0.68566124  0.54341643  0.83289650     1.09900
C3667       C  0.81926701  0.95917599  0.84771221     1.09700
C3668       C  0.81798421  0.53187162  0.84057778     1.09900
C3669       C  0.68690543  0.95784633  0.83054954     1.09800
O3670       O  0.71458540  0.96021702  0.92132048    -0.79800
O3671       O  0.79320969  0.53873099  0.91905795    -0.79900
O3672       O  0.72810006  0.56820149  0.87922703    -0.79800
O3673       O  0.77179181  0.92059475  0.87061157    -0.79800
O3674       O  0.78912572  0.94786716  0.91366910    -0.79900
O3675       O  0.71212766  0.53719355  0.91968521    -0.79800
O3676       O  0.72463750  0.92790820  0.87992284    -0.79800
O3677       O  0.77723008  0.56814579  0.87590131    -0.79900
Co3678     Co  0.70161012  0.49782077  0.89091495     1.51500
Co3679     Co  0.78713689  0.49646843  0.89537155     1.51700
Co3680     Co  0.75009897  0.53741230  0.85116201     1.51600
Co3681     Co  0.74966449  0.95749200  0.85156356     1.51500
O3682       O  0.74566407  0.49756747  0.87272239    -1.41800
C3683       C  0.71576937  0.93145490  0.90903678     1.09800
C3684       C  0.79221888  0.56581223  0.90318559     1.09900
C3685       C  0.71508392  0.56560101  0.90657894     1.09800
C3686       C  0.78553704  0.92137911  0.89824646     1.09800
O3687       O  0.53941594  0.65908254  0.70514027    -0.79800
O3688       O  0.96646838  0.67520044  0.79554407    -0.79800
O3689       O  0.97305511  0.63823957  0.68822654    -0.79900
O3690       O  0.53058217  0.61969726  0.82475695    -0.79800
O3691       O  0.96414982  0.68056731  0.71919580    -0.79900
O3692       O  0.53596660  0.66726455  0.80294461    -0.79800
O3693       O  0.97063165  0.62977053  0.82462737    -0.79800
O3694       O  0.51500160  0.62273997  0.67529336    -0.79900
C3695       C  0.53305511  0.64704710  0.67710600     1.09900
C3696       C  0.96556681  0.66019944  0.82312306     1.09700
C3697       C  0.96444571  0.66727647  0.69080453     1.09900
C3698       C  0.53905828  0.64804605  0.82708528     1.09800
O3699       O  0.56382980  0.62092117  0.77034033    -0.79800
O3700       O  0.92699170  0.62474301  0.72166773    -0.79900
O3701       O  0.53744355  0.58250099  0.71083032    -0.79800
O3702       O  0.96077059  0.57572164  0.78155275    -0.79800
O3703       O  0.93068126  0.61939461  0.78500597    -0.79900
O3704       O  0.56518027  0.62490598  0.73035820    -0.79800
O3705       O  0.53543996  0.57601415  0.78070594    -0.79800
O3706       O  0.95353769  0.58004116  0.70916806    -0.79900
Co3707     Co  0.53427829  0.65697735  0.75440083     1.51500
Co3708     Co  0.95126881  0.65001898  0.75577428     1.51700
Co3709     Co  0.49491761  0.60600174  0.71460361     1.51600
Co3710     Co  0.99879958  0.60058924  0.79881797     1.51500
O3711       O  0.99552399  0.62778334  0.75709444    -1.41800
C3712       C  0.56255327  0.59143248  0.78045204     1.09800
C3713       C  0.92752907  0.59707983  0.70849356     1.09900
C3714       C  0.56423278  0.59758095  0.71444475     1.09800
C3715       C  0.93348953  0.58909806  0.78662792     1.09800
O3716       O  0.51207120  0.87446684  0.67647907    -0.79800
O3717       O  0.97682784  0.86612779  0.82604870    -0.79800
O3718       O  0.54625701  0.82221639  0.78290648    -0.79900
O3719       O  0.95901288  0.82424561  0.72035276    -0.79800
O3720       O  0.54015018  0.86394845  0.81583116    -0.79900
O3721       O  0.96706027  0.86615299  0.68844596    -0.79800
O3722       O  0.97069620  0.82466984  0.79326781    -0.79800
O3723       O  0.52876436  0.83057148  0.70308141    -0.79900
C3724       C  0.52487167  0.84640592  0.67619463     1.09900
C3725       C  0.97216183  0.83632915  0.82199597     1.09700
C3726       C  0.55064456  0.83565527  0.81072224     1.09900
C3727       C  0.95730633  0.83769319  0.69201232     1.09800
O3728       O  0.95072752  0.92167907  0.70943715    -0.79800
O3729       O  0.53856821  0.92200256  0.78109393    -0.79900
O3730       O  0.56482290  0.87592155  0.71856082    -0.79800
O3731       O  0.93269444  0.88319586  0.79248541    -0.79800
O3732       O  0.96639967  0.92468233  0.79247993    -0.79900
O3733       O  0.53506713  0.91948679  0.70800174    -0.79800
O3734       O  0.92387643  0.88004181  0.72912590    -0.79800
O3735       O  0.56742735  0.88036596  0.76554900    -0.79900
Co3736     Co  0.49263523  0.89611468  0.71502950     1.51500
Co3737     Co  0.50533435  0.89367581  0.80034356     1.51700
Co3738     Co  0.53420279  0.85220677  0.74644636     1.51600
Co3739     Co  0.95009858  0.85295079  0.75908710     1.51500
O3740       O  0.49456971  0.87374832  0.75666752    -1.41800
C3741       C  0.92444724  0.90584143  0.71282976     1.09800
C3742       C  0.56607296  0.90862546  0.77695869     1.09900
C3743       C  0.56237439  0.90430687  0.70666231     1.09800
C3744       C  0.93880708  0.91274385  0.79829269     1.09800
C3745       C  0.85091546  0.94775781  0.83574882    -0.05000
C3746       C  0.86238706  0.95942316  0.80622906    -0.02100
C3747       C  0.89461848  0.95381600  0.79773957     0.02800
C3748       C  0.91309654  0.93102317  0.81485310    -0.05000
C3749       C  0.90271179  0.92103908  0.84547580    -0.02100
C3750       C  0.87249133  0.93072804  0.85663528     0.02800
C3751       C  0.84110907  0.97964196  0.78734089     0.37500
C3752       C  0.92484081  0.90522900  0.86776049     0.37500
C3753       C  0.86500745  0.92480742  0.89028047     0.35900
C3754       C  0.91260823  0.97800676  0.78149600     0.35900
N3755       N  0.86074212  0.92042327  0.91755236    -0.38900
N3756       N  0.92951412  0.99770171  0.77219496    -0.38900
N3757       N  0.94156523  0.89429054  0.88765463    -0.38400
N3758       N  0.82103620  0.99571908  0.77616090    -0.38400
C3759       C  0.59771973  0.92327172  0.78684332    -0.05000
C3760       C  0.59921567  0.95378992  0.80141534    -0.02100
C3761       C  0.62737592  0.96291319  0.81827341     0.02800
C3762       C  0.65718422  0.94729141  0.81255564    -0.05000
C3763       C  0.65653583  0.91804902  0.79539931    -0.02100
C3764       C  0.62672303  0.90433164  0.78657994     0.02800
C3765       C  0.57085408  0.97396347  0.80365003     0.37500
C3766       C  0.68570213  0.89926330  0.79155079     0.37500
C3767       C  0.62610070  0.86946163  0.78347342     0.35900
C3768       C  0.62306304  0.98149214  0.84738414     0.35900
N3769       N  0.62559542  0.84161561  0.78222953    -0.38900
N3770       N  0.61730370  0.48975251  0.87550413    -0.38900
N3771       N  0.70844793  0.88366705  0.78819282    -0.38400
N3772       N  0.54824616  0.99003122  0.80560450    -0.38400
C3773       C  0.84806637  0.54480685  0.82574495    -0.05000
C3774       C  0.87944485  0.53414853  0.83592790    -0.02100
C3775       C  0.90716596  0.54627739  0.82094256     0.02800
C3776       C  0.90446097  0.57168059  0.79815578    -0.05000
C3777       C  0.87331315  0.58484084  0.79131151    -0.02100
C3778       C  0.84565253  0.56979233  0.80245741     0.02800
C3779       C  0.88411882  0.51194740  0.86288372     0.37500
C3780       C  0.86889753  0.61641651  0.77667302     0.37500
C3781       C  0.81465712  0.58177348  0.79067166     0.35900
C3782       C  0.93871053  0.53537363  0.83218092     0.35900
N3783       N  0.79010970  0.59125645  0.78092090    -0.38900
N3784       N  0.96380023  0.52663413  0.84115386    -0.38900
N3785       N  0.86477618  0.64244850  0.76737611    -0.38400
N3786       N  0.88870922  0.49484100  0.88475313    -0.38400
C3787       C  0.65527911  0.55794015  0.81879492    -0.05000
C3788       C  0.65337953  0.57385847  0.78873679    -0.02100
C3789       C  0.62411392  0.58860589  0.77906634     0.02800
C3790       C  0.59438190  0.57761705  0.79190723    -0.05000
C3791       C  0.59651295  0.56176844  0.82206324    -0.02100
C3792       C  0.62679482  0.55715373  0.83727450     0.02800
C3793       C  0.68184625  0.57969392  0.77018951     0.37500
C3794       C  0.56795392  0.55529888  0.84020457     0.37500
C3795       C  0.62848903  0.55754935  0.87252331     0.35900
C3796       C  0.62709188  0.62051728  0.76538749     0.35900
N3797       N  0.62979139  0.55805266  0.90060257    -0.38900
N3798       N  0.63086182  0.64668536  0.75667651    -0.38900
N3799       N  0.54540802  0.55002067  0.85497222    -0.38400
N3800       N  0.70427393  0.58467417  0.75511588    -0.38400
C3801       C  0.83190628  0.93111429  0.67018148    -0.05000
C3802       C  0.84332455  0.89969889  0.66649158    -0.02100
C3803       C  0.87209588  0.89050808  0.68295272     0.02800
C3804       C  0.89309302  0.91451920  0.69635811    -0.05000
C3805       C  0.88166910  0.94611066  0.69764887    -0.02100
C3806       C  0.84951238  0.95270463  0.68903638     0.02800
C3807       C  0.82541272  0.87686431  0.64689817     0.37500
C3808       C  0.90428892  0.97100836  0.70442309     0.37500
C3809       C  0.83067188  0.97714657  0.70415308     0.35900
C3810       C  0.87748751  0.85649777  0.68827533     0.35900
N3811       N  0.81244297  0.49119263  0.71648724    -0.38900
N3812       N  0.87932970  0.82920547  0.69353841    -0.38900
N3813       N  0.92648707  0.48634913  0.70927066    -0.38400
N3814       N  0.81175238  0.85835337  0.63096874    -0.38400
C3815       C  0.59285707  0.91908924  0.69357713    -0.05000
C3816       C  0.62365751  0.90362763  0.69746233    -0.02100
C3817       C  0.65243480  0.91950394  0.68931472     0.02800
C3818       C  0.65130960  0.94899365  0.67241102    -0.05000
C3819       C  0.62012404  0.96271821  0.66525330    -0.02100
C3820       C  0.59173577  0.94846058  0.67647736     0.02800
C3821       C  0.62664399  0.86987842  0.70602343     0.37500
C3822       C  0.61601589  0.99185119  0.64591947     0.37500
C3823       C  0.56097958  0.96304379  0.66774337     0.35900
C3824       C  0.68315769  0.90441809  0.69709227     0.35900
N3825       N  0.53648532  0.97454254  0.66043886    -0.38900
N3826       N  0.70754013  0.89235086  0.70378181    -0.38900
N3827       N  0.61160117  0.01474435  0.63035571    -0.38400
N3828       N  0.63052999  0.84283642  0.71165244    -0.38400
C3829       C  0.89634600  0.58625560  0.69264133    -0.05000
C3830       C  0.89309514  0.55509871  0.68025784    -0.02100
C3831       C  0.86569538  0.53859115  0.68895176     0.02800
C3832       C  0.83625432  0.55493017  0.68558620    -0.05000
C3833       C  0.83688288  0.58847875  0.69116635    -0.02100
C3834       C  0.86702741  0.60432909  0.69495404     0.02800
C3835       C  0.91910916  0.53836271  0.66515946     0.37500
C3836       C  0.80720154  0.60536763  0.69689625     0.37500
C3837       C  0.86746341  0.63912685  0.69672872     0.35900
C3838       C  0.87130179  0.52943962  0.72217174     0.35900
N3839       N  0.86756801  0.66696106  0.69771141    -0.38900
N3840       N  0.87231688  0.02616036  0.74550667    -0.38900
N3841       N  0.78355245  0.61832523  0.70321642    -0.38400
N3842       N  0.93990258  0.02369650  0.64926105    -0.38400
C3843       C  0.59585277  0.58354596  0.70324210    -0.05000
C3844       C  0.61974052  0.60384799  0.69018268    -0.02100
C3845       C  0.64976627  0.59126819  0.68095214     0.02800
C3846       C  0.65693527  0.55839227  0.68451544    -0.05000
C3847       C  0.63601700  0.53953727  0.70277837    -0.02100
C3848       C  0.60480910  0.55112385  0.70998020     0.02800
C3849       C  0.61512296  0.63824679  0.68795680     0.37500
C3850       C  0.64841548  0.51072710  0.71848683     0.37500
C3851       C  0.58268619  0.52999940  0.72581091     0.35900
C3852       C  0.67454579  0.61262972  0.66992638     0.35900
N3853       N  0.56485945  0.51306935  0.73823869    -0.38900
N3854       N  0.69439754  0.62985637  0.66172573    -0.38900
N3855       N  0.65796720  0.98969879  0.73195341    -0.38400
N3856       N  0.61404455  0.66602347  0.68767925    -0.38400
C3857       C  0.81675939  0.85139460  0.54082483    -0.05000
C3858       C  0.83279223  0.88178383  0.53748948    -0.02100
C3859       C  0.81912089  0.91112791  0.54915546     0.02800
C3860       C  0.78694955  0.91254049  0.55890284    -0.05000
C3861       C  0.76930316  0.88373082  0.55465327    -0.02100
C3862       C  0.78502745  0.85326094  0.55144713     0.02800
C3863       C  0.86291893  0.88387723  0.52094355     0.37500
C3864       C  0.73908344  0.88686152  0.53751210     0.37500
C3865       C  0.76791646  0.82374143  0.55662551     0.35900
C3866       C  0.83833280  0.94002330  0.55071848     0.35900
N3867       N  0.75574346  0.79905169  0.55965693    -0.38900
N3868       N  0.85368249  0.96306935  0.55198592    -0.38900
N3869       N  0.71591081  0.88887235  0.52164810    -0.38400
N3870       N  0.88665214  0.88593258  0.50723515    -0.38400
C3871       C  0.79418271  0.60196168  0.57268585    -0.05000
C3872       C  0.79102188  0.63262374  0.58851859    -0.02100
C3873       C  0.80326652  0.66106945  0.57455983     0.02800
C3874       C  0.81299331  0.66113758  0.54225659    -0.05000
C3875       C  0.80903831  0.63234704  0.52456630    -0.02100
C3876       C  0.80556984  0.60254917  0.54079582     0.02800
C3877       C  0.77410432  0.63632782  0.61844102     0.37500
C3878       C  0.79400086  0.63451081  0.49284853     0.37500
C3879       C  0.81152895  0.57293354  0.52351433     0.35900
C3880       C  0.80540133  0.69048383  0.59337428     0.35900
N3881       N  0.81607921  0.54903903  0.50997414    -0.38900
N3882       N  0.80709295  0.71396024  0.60833353    -0.38900
N3883       N  0.77520068  0.63957134  0.97034544    -0.38400
N3884       N  0.76013144  0.64060124  0.64186886    -0.38400
C3885       C  0.79542037  0.89014935  0.91299567    -0.05000
C3886       C  0.78718078  0.88238228  0.94510388    -0.02100
C3887       C  0.79249599  0.85091262  0.95682855     0.02800
C3888       C  0.81222157  0.82982603  0.94001012    -0.05000
C3889       C  0.81879841  0.83645226  0.90743326    -0.02100
C3890       C  0.80936804  0.86602721  0.89346823     0.02800
C3891       C  0.77261812  0.90626872  0.96564016     0.37500
C3892       C  0.83282993  0.81193648  0.88737479     0.37500
C3893       C  0.81468133  0.87147707  0.85919484     0.35900
C3894       C  0.77062292  0.83690880  0.97918775     0.35900
N3895       N  0.81854553  0.87534010  0.83176211    -0.38900
N3896       N  0.74589350  0.82527280  0.49043898    -0.38900
N3897       N  0.84285709  0.79280618  0.87000218    -0.38400
N3898       N  0.76156562  0.92623905  0.98143813    -0.38400
C3899       C  0.80962694  0.59552236  0.91467846    -0.05000
C3900       C  0.83391435  0.59325272  0.93893179    -0.02100
C3901       C  0.84623927  0.62127527  0.95355961     0.02800
C3902       C  0.83639696  0.65235777  0.94228034    -0.05000
C3903       C  0.81667768  0.65463641  0.91417408    -0.02100
C3904       C  0.80414722  0.62640727  0.89983220     0.02800
C3905       C  0.84868069  0.56239885  0.94669399     0.37500
C3906       C  0.80977431  0.68590225  0.89957147     0.37500
C3907       C  0.78923152  0.62973292  0.86783786     0.35900
C3908       C  0.86607635  0.61750980  0.98279518     0.35900
N3909       N  0.77884609  0.63332299  0.84181510    -0.38900
N3910       N  0.88129952  0.61312130  0.50284297    -0.38900
N3911       N  0.80425497  0.71080423  0.88789612    -0.38400
N3912       N  0.86094498  0.53786758  0.95247169    -0.38400
C3913       C  0.96358517  0.81764990  0.85148101    -0.05000
C3914       C  0.97320399  0.82893779  0.88289646    -0.02100
C3915       C  0.95689244  0.81912434  0.91074387     0.02800
C3916       C  0.93309136  0.79546537  0.90827761    -0.05000
C3917       C  0.92575925  0.78182417  0.87720422    -0.02100
C3918       C  0.94047299  0.79324952  0.84912352     0.02800
C3919       C  0.99738134  0.85358229  0.88688207     0.37500
C3920       C  0.90325659  0.75557467  0.87323427     0.37500
C3921       C  0.93013614  0.78088612  0.81762665     0.35900
C3922       C  0.96335563  0.83494469  0.94157233     0.35900
N3923       N  0.92192046  0.77091072  0.79261693    -0.38900
N3924       N  0.96825228  0.84792084  0.96596904    -0.38900
N3925       N  0.88564674  0.73461582  0.86855774    -0.38400
N3926       N  0.01480629  0.87477451  0.89088805    -0.38400
C3927       C  0.94460800  0.82292072  0.66078190    -0.05000
C3928       C  0.93077174  0.79227212  0.65924758    -0.02100
C3929       C  0.91635279  0.78179322  0.62965330     0.02800
C3930       C  0.92310585  0.79747626  0.59949740    -0.05000
C3931       C  0.93722919  0.82787101  0.60116650    -0.02100
C3932       C  0.94284828  0.84209330  0.63168473     0.02800
C3933       C  0.92723394  0.77349343  0.68867313     0.37500
C3934       C  0.94080975  0.84688687  0.57188815     0.37500
C3935       C  0.93983654  0.87698066  0.63286774     0.35900
C3936       C  0.89222458  0.75707583  0.63176308     0.35900
N3937       N  0.93679449  0.90468942  0.63341946    -0.38900
N3938       N  0.87278197  0.73776629  0.63514198    -0.38900
N3939       N  0.94374900  0.86224438  0.54871123    -0.38400
N3940       N  0.92440651  0.75837319  0.71204414    -0.38400
C3941       C  0.95687455  0.67581717  0.85505469    -0.05000
C3942       C  0.94056344  0.65716506  0.87839558    -0.02100
C3943       C  0.93811882  0.66758152  0.91065705     0.02800
C3944       C  0.94641096  0.69883024  0.91965923    -0.05000
C3945       C  0.96470218  0.71672195  0.89801373    -0.02100
C3946       C  0.96916888  0.70587436  0.86546425     0.02800
C3947       C  0.92430541  0.62767261  0.86973417     0.37500
C3948       C  0.98257053  0.74322873  0.91156973     0.37500
C3949       C  0.98493709  0.72596927  0.84237564     0.35900
C3950       C  0.93165200  0.64452916  0.93585079     0.35900
N3951       N  0.99658925  0.74195060  0.82305200    -0.38900
N3952       N  0.92885208  0.62522426  0.95577158    -0.38900
N3953       N  0.99783818  0.76309821  0.92385237    -0.38400
N3954       N  0.91050286  0.60421141  0.86446169    -0.38400
C3955       C  0.92807385  0.70276425  0.59662337    -0.05000
C3956       C  0.91862967  0.67306655  0.60905426    -0.02100
C3957       C  0.93382668  0.66072474  0.63717775     0.02800
C3958       C  0.95176436  0.68120436  0.65885585    -0.05000
C3959       C  0.96250375  0.71042664  0.64547822    -0.02100
C3960       C  0.95361907  0.71896707  0.61287002     0.02800
C3961       C  0.89666174  0.65271194  0.59058573     0.37500
C3962       C  0.98338047  0.73112361  0.66429526     0.37500
C3963       C  0.97181998  0.74285961  0.59583467     0.35900
C3964       C  0.93684863  0.62601081  0.63806285     0.35900
N3965       N  0.98701542  0.76149864  0.58225987    -0.38900
N3966       N  0.94075021  0.59855983  0.63571751    -0.38900
N3967       N  0.99891376  0.74888025  0.67929179    -0.38400
N3968       N  0.87979644  0.63537834  0.57658377    -0.38400
C3969       C  0.70603963  0.90076080  0.92695513    -0.05000
C3970       C  0.68660443  0.90235522  0.95428834    -0.02100
C3971       C  0.67180643  0.87422684  0.96623438     0.02800
C3972       C  0.68148969  0.84256173  0.95659804    -0.05000
C3973       C  0.70355698  0.84067708  0.93149918    -0.02100
C3974       C  0.71313065  0.86900553  0.91482340     0.02800
C3975       C  0.67906548  0.93331190  0.96877591     0.37500
C3976       C  0.71393902  0.80923230  0.92037929     0.37500
C3977       C  0.72746757  0.86426869  0.88358347     0.35900
C3978       C  0.64318586  0.87950835  0.98421417     0.35900
N3979       N  0.73796250  0.85948538  0.85829894    -0.38900
N3980       N  0.61933480  0.88636102  0.99607330    -0.38900
N3981       N  0.72239857  0.78421035  0.91170138    -0.38400
N3982       N  0.67308521  0.95774064  0.98064557    -0.38400
C3983       C  0.68233353  0.66045534  0.94485624    -0.05000
C3984       C  0.70055213  0.65774031  0.91667998    -0.02100
C3985       C  0.70656215  0.62719230  0.90272166     0.02800
C3986       C  0.70318464  0.59774256  0.92066199    -0.05000
C3987       C  0.68573254  0.60003878  0.94938500    -0.02100
C3988       C  0.67350939  0.63045182  0.95999532     0.02800
C3989       C  0.71176546  0.68628322  0.90032911     0.37500
C3990       C  0.67736796  0.57079547  0.96647964     0.37500
C3991       C  0.64958584  0.62907825  0.98479231     0.35900
C3992       C  0.70940430  0.62679117  0.86770895     0.35900
N3993       N  0.63021311  0.62563666  0.00402036    -0.38900
N3994       N  0.71014686  0.62661308  0.83967873    -0.38900
N3995       N  0.67053101  0.54767418  0.98036355    -0.38400
N3996       N  0.72102187  0.70888487  0.88714622    -0.38400
C3997       C  0.68905056  0.91143052  0.58251835    -0.05000
C3998       C  0.65934485  0.91090921  0.56577929    -0.02100
C3999       C  0.64467465  0.88106136  0.55901768     0.02800
C4000       C  0.66272103  0.85172234  0.56143438    -0.05000
C4001       C  0.68880973  0.85164457  0.58350797    -0.02100
C4002       C  0.70069187  0.88114208  0.59571803     0.02800
C4003       C  0.64239714  0.94073821  0.55821428     0.37500
C4004       C  0.70042540  0.82141271  0.59729199     0.37500
C4005       C  0.72497889  0.87906631  0.62140938     0.35900
C4006       C  0.61003534  0.88070663  0.55588116     0.35900
N4007       N  0.74398076  0.87651213  0.64218032    -0.38900
N4008       N  0.58237745  0.88152780  0.55366747    -0.38900
N4009       N  0.70885071  0.79749436  0.60932815    -0.38400
N4010       N  0.62888517  0.96453513  0.55221287    -0.38400
C4011       C  0.68790311  0.66632220  0.55664375    -0.05000
C4012       C  0.67168394  0.64976878  0.58083146    -0.02100
C4013       C  0.67302429  0.61625770  0.58275334     0.02800
C4014       C  0.69696548  0.59911637  0.56679471    -0.05000
C4015       C  0.71492558  0.61542748  0.54344687    -0.02100
C4016       C  0.71044666  0.64921912  0.53848718     0.02800
C4017       C  0.65513071  0.66744354  0.60528600     0.37500
C4018       C  0.73253168  0.59612475  0.52102151     0.37500
C4019       C  0.72875549  0.66739817  0.51567661     0.35900
C4020       C  0.64753039  0.59912592  0.59834004     0.35900
N4021       N  0.74229811  0.68410336  0.49830103    -0.38900
N4022       N  0.62618916  0.58588131  0.60954789    -0.38900
N4023       N  0.74473841  0.57946188  0.50254356    -0.38400
N4024       N  0.64360275  0.68098924  0.62642933    -0.38400
C4025       C  0.57609342  0.79358486  0.90336274    -0.05000
C4026       C  0.56806617  0.77401768  0.87666460    -0.02100
C4027       C  0.56526158  0.78669126  0.84483060     0.02800
C4028       C  0.56694480  0.82006868  0.83978006    -0.05000
C4029       C  0.57681759  0.83964685  0.86658369    -0.02100
C4030       C  0.57908396  0.82671808  0.89820212     0.02800
C4031       C  0.55449483  0.74338701  0.88317751     0.37500
C4032       C  0.58460539  0.87341584  0.86238478     0.37500
C4033       C  0.57944360  0.84806773  0.92582915     0.35900
C4034       C  0.56165059  0.76540834  0.81732118     0.35900
N4035       N  0.57737560  0.86540173  0.94755161    -0.39500
N4036       N  0.55940158  0.74883072  0.79487107    -0.38900
N4037       N  0.59075062  0.90040696  0.86013954    -0.38400
N4038       N  0.54082774  0.72018635  0.88884127    -0.38400
C4039       C  0.53558238  0.83257722  0.64475487    -0.05000
C4040       C  0.52555071  0.84419364  0.61310156    -0.02100
C4041       C  0.53615662  0.82789800  0.58473661     0.02800
C4042       C  0.56306391  0.80727323  0.58766021    -0.05000
C4043       C  0.57872014  0.80658886  0.61850321    -0.02100
C4044       C  0.56139710  0.81082291  0.64621239     0.02800
C4045       C  0.51111180  0.87575906  0.60876607     0.37500
C4046       C  0.61225457  0.81484189  0.62218927     0.37500
C4047       C  0.57546397  0.79892676  0.67653320     0.35900
C4048       C  0.52353254  0.83656437  0.55284627     0.35900
N4049       N  0.58661182  0.78959303  0.70079577    -0.38900
N4050       N  0.51397695  0.84378254  0.52722418    -0.38900
N4051       N  0.63851976  0.82192311  0.62752034    -0.38400
N4052       N  0.00082850  0.89969643  0.60450276    -0.38400
C4053       C  0.58284687  0.67333942  0.92004011    -0.05000
C4054       C  0.59732554  0.68200581  0.88994047    -0.02100
C4055       C  0.58295134  0.67351945  0.85986667     0.02800
C4056       C  0.55413079  0.65663921  0.85889704    -0.05000
C4057       C  0.54220490  0.64400007  0.88844126    -0.02100
C4058       C  0.55655031  0.65223761  0.91871069     0.02800
C4059       C  0.62428745  0.70353342  0.88791404     0.37500
C4060       C  0.51505566  0.62238639  0.88824513     0.37500
C4061       C  0.54335299  0.63951601  0.94826949     0.35900
C4062       C  0.59709961  0.68393885  0.82975041     0.35900
N4063       N  0.53269778  0.62878165  0.97151606    -0.38900
N4064       N  0.60842614  0.69284812  0.80608314    -0.38900
N4065       N  0.99594220  0.60350471  0.88875694    -0.38400
N4066       N  0.64440341  0.72160192  0.88250936    -0.38400
C4067       C  0.57032564  0.69201310  0.59048311    -0.05000
C4068       C  0.57333482  0.70672010  0.62147448    -0.02100
C4069       C  0.55871395  0.69353783  0.64859607     0.02800
C4070       C  0.54478375  0.66265916  0.64683575    -0.05000
C4071       C  0.54283803  0.64700718  0.61615227    -0.02100
C4072       C  0.55436175  0.66221891  0.58799931     0.02800
C4073       C  0.59654914  0.73171179  0.62788775     0.37500
C4074       C  0.53089410  0.61437871  0.61331867     0.37500
C4075       C  0.55253236  0.64549991  0.55716552     0.35900
C4076       C  0.56114953  0.71097519  0.67913404     0.35900
N4077       N  0.55107518  0.63196391  0.53267484    -0.38900
N4078       N  0.56365340  0.72400378  0.70384431    -0.38900
N4079       N  0.52173909  0.58826191  0.61091525    -0.38400
N4080       N  0.61744297  0.74857966  0.63484222    -0.38400
loop_ 
_geom_bond_atom_site_label_1 
_geom_bond_atom_site_label_2 
_geom_bond_distance 
_geom_bond_site_symmetry_2 
_ccdc_geom_bond_type 
O1            C9   1.274       .  A
O1          Co21   1.963       .  S
O2           C10   1.267       .  A
O2          Co22   1.964       .  S
O3           C11   1.262       .  A
O3          Co23   1.952       .  S
O4           C12   1.269       .  A
O4          Co24   1.973       .  S
O5           C11   1.286       .  A
O5         Co532   2.026       .  S
O6           C12   1.287       .  A
O6         Co531   2.011       .  S
O7           C10   1.280       .  A
O7          Co24   2.019       .  S
O8            C9   1.273       .  A
O8          Co23   2.006       .  S
C9          C497   1.490       .  S
C10         C455   1.464       .  S
C11         C472   1.510       .  S
C12         C483   1.494       .  S
O13          C26   1.277       .  A
O13        Co531   2.004       .  S
O14          C27   1.264       .  A
O14        Co532   1.971       .  S
O15          C28   1.284       .  A
O15         Co23   2.012       .  S
O16          C29   1.278       .  A
O16         Co24   1.960       .  S
O17          C29   1.281       .  A
O17         Co22   2.035       .  S
O18          C28   1.277       .  A
O18         Co21   1.999       .  S
O19          C26   1.296       .  A
O19         Co24   2.053       .  S
O20          C27   1.289       .  A
O20         Co23   2.018       .  S
Co21        O516   2.010   1_554  S
Co21        O523   2.005   1_554  S
Co21         O25   1.951       .  S
Co22        O515   2.003       .  S
Co22        O524   1.959       .  S
Co22        O535   2.040       .  S
Co23         O25   2.028       .  S
Co24        O535   1.946       .  S
O25        Co534   1.954   1_554  S
O25        Co532   2.053       .  S
C26         C413   1.527       .  S
C27         C430   1.510       .  S
C28         C441   1.487       .  S
C29         C402   1.502       .  S
O30          C38   1.279       .  A
O30         Co50   2.037       .  S
O31          C39   1.254       .  A
O31         Co51   1.972       .  S
O32          C40   1.279       .  A
O32        Co562   2.014       .  S
O33          C41   1.299       .  A
O33        Co563   2.042       .  S
O34          C40   1.277       .  A
O34         Co51   2.039       .  S
O35          C41   1.266       .  A
O35         Co50   1.990       .  S
O36          C39   1.280       .  A
O36         Co53   2.014       .  S
O37          C38   1.260       .  A
O37         Co52   1.975       .  S
C38         C385   1.494       .  S
C39         C346   1.491       .  S
C40         C374   1.510       .  S
C41         C360   1.515       .  S
O42          C55   1.296       .  A
O42         Co50   2.075       .  S
O43          C56   1.269       .  A
O43         Co51   1.985       .  S
O44          C57   1.284       .  A
O44         Co52   2.050       .  S
O45          C58   1.285       .  A
O45         Co53   2.038       .  S
O46          C58   1.270       .  A
O46         Co51   1.965       .  S
O47          C57   1.283       .  A
O47         Co50   2.006       .  S
O48          C55   1.254       .  A
O48        Co563   1.976       .  S
O49          C56   1.256       .  A
O49        Co562   1.977       .  S
Co50         O54   2.110   1_554  S
Co51        O564   2.098       .  S
Co52        O542   2.007   1_554  S
Co52        O559   1.977   1_554  S
Co52         O54   2.106   1_554  S
Co53        O543   2.031       .  S
Co53        O558   1.985       .  S
Co53        O564   2.092       .  S
O54        Co561   2.106       .  S
O54        Co563   2.094   1_556  S
C55         C287   1.543       .  S
C56         C332   1.486       .  S
C57         C304   1.514       .  S
C58         C318   1.468       .  S
O59          C67   1.267       .  A
O59         Co79   2.002       .  S
O60          C68   1.281       .  A
O60         Co80   1.895       .  S
O61          C69   1.249       .  A
O61       Co1101   1.938       .  S
O62          C70   1.271       .  A
O62         Co82   2.017       .  S
O63          C69   1.292       .  A
O63         Co80   2.087       .  S
O64          C70   1.274       .  A
O64         Co79   1.984       .  S
O65          C68   1.307       .  A
O65       Co1102   2.111       .  S
O66          C67   1.273       .  A
O66         Co81   2.019       .  S
C67         C276   1.495       .  S
C68         C231   1.478       .  S
C69         C248   1.532       .  S
C70         C262   1.496       .  S
O71          C84   1.261       .  A
O71         Co79   1.992       .  S
O72          C85   1.281       .  A
O72         Co80   2.010       .  S
O73          C86   1.281       .  A
O73         Co81   2.005       .  S
O74          C87   1.278       .  A
O74       Co1102   2.014       .  S
O75          C87   1.288       .  A
O75         Co80   2.118       .  S
O76          C86   1.278       .  A
O76         Co79   2.004       .  S
O77          C84   1.290       .  A
O77         Co82   2.052       .  S
O78          C85   1.292       .  A
O78       Co1101   2.009       .  S
Co79         O83   2.062       .  S
Co80       O1103   1.942       .  S
Co81       O1081   1.948   1_545  S
Co81       O1098   2.000   1_545  S
Co81         O83   2.098       .  S
Co82       O1085   2.108   1_545  S
Co82       O1094   2.017   1_545  S
Co82         O83   2.128       .  S
O83       Co1100   1.938   1_545  S
C84         C301   1.532       .  S
C85         C427   1.505       .  S
C86         C444   1.488       .  S
C87         C290   1.540       .  S
O88          C96   1.269       .  A
O88        Co108   1.991   1_545  S
O89          C97   1.307       .  A
O89       Co1129   2.080       .  S
O90          C98   1.284       .  A
O90        Co110   1.982       .  S
O91          C99   1.278       .  A
O91        Co111   1.971       .  S
O92          C98   1.312       .  A
O92        Co109   2.110   1_545  S
O93          C99   1.275       .  A
O93       Co1128   2.004       .  S
O94          C97   1.286       .  A
O94        Co111   1.996       .  S
O95          C96   1.279       .  A
O95        Co110   1.989       .  S
C96         C217   1.512       .  S
C97         C175   1.498       .  S
C98         C203   1.533       .  S
C99         C192   1.490       .  S
O100        C113   1.288       .  A
O100      Co1128   2.011       .  S
O101        C114   1.280       .  A
O101       Co109   2.033   1_545  S
O102        C115   1.270       .  A
O102       Co110   1.991       .  S
O103        C116   1.262       .  A
O103       Co111   1.934       .  S
O104        C116   1.280       .  A
O104      Co1129   2.045       .  S
O105        C115   1.292       .  A
O105       Co108   2.029   1_545  S
O106        C113   1.272       .  A
O106       Co111   1.999       .  S
O107        C114   1.267       .  A
O107       Co110   1.958       .  S
Co108      O1113   2.006       .  S
Co108      O1120   2.012       .  S
Co108       O112   2.033       .  S
Co109      O1109   2.069       .  S
Co109      O1124   2.048       .  S
Co109       O112   2.036       .  S
Co110       O112   1.919   1_545  S
Co111      O1132   1.932       .  S
O112      Co1131   1.934       .  S
C113        C399   1.511       .  S
C114        C329   1.503       .  S
C115        C416   1.535       .  S
C116        C315   1.480       .  S
O117        C125   1.287       .  A
O117       Co137   1.990       .  S
O118        C126   1.290       .  A
O118       Co138   2.046       .  S
O119        C127   1.305       .  A
O119      Co2179   2.059       .  S
O120        C128   1.258       .  A
O120      Co2180   1.952       .  S
O121        C127   1.300       .  A
O121       Co138   2.022       .  S
O122        C128   1.285       .  A
O122       Co137   2.006       .  S
O123        C126   1.272       .  A
O123       Co140   1.999       .  S
O124        C125   1.277       .  A
O124       Co139   2.001   1_455  S
C125        C500   1.501       .  S
C126        C371   1.529       .  S
C127        C388   1.512       .  S
C128        C486   1.498       .  S
O129        C142   1.267       .  A
O129       Co137   1.969       .  S
O130        C143   1.251       .  A
O130       Co138   1.976       .  S
O131        C144   1.294       .  A
O131       Co139   2.044   1_455  S
O132        C145   1.291       .  A
O132       Co140   2.022       .  S
O133        C145   1.278       .  A
O133       Co138   2.007       .  S
O134        C144   1.279       .  A
O134       Co137   2.004       .  S
O135        C142   1.302       .  A
O135      Co2180   2.048       .  S
O136        C143   1.266       .  A
O136      Co2179   2.005       .  S
Co137      O2181   1.939   1_455  S
Co138       O141   2.077       .  S
Co139      O2159   1.967       .  S
Co139      O2176   2.012       .  S
Co139      O2181   1.946       .  S
Co140      O2160   1.966       .  S
Co140      O2175   2.045       .  S
Co140       O141   2.051       .  S
O141      Co2177   1.973       .  S
O141      Co2179   2.031       .  S
C142        C220   1.513       .  S
C143        C259   1.503       .  S
C144        C273   1.512       .  S
C145        C206   1.522       .  S
O146        C154   1.276       .  A
O146       Co166   2.013   1_455  S
O147        C155   1.269       .  A
O147      Co2207   1.976       .  S
O148        C156   1.322       .  A
O148       Co168   2.095       .  S
O149        C157   1.294       .  A
O149       Co169   2.049       .  S
O150        C156   1.278       .  A
O150       Co167   1.855       .  S
O151        C157   1.258       .  A
O151      Co2206   1.974       .  S
O152        C155   1.283       .  A
O152       Co169   2.000       .  S
O153        C154   1.293       .  A
O153       Co168   1.993       .  S
C154        C469   1.499       .  S
C155        C343   1.493       .  S
C156        C458   1.485       .  S
C157        C357   1.531       .  S
O158        C171   1.293       .  A
O158      Co2206   2.005       .  S
O159        C172   1.285       .  A
O159       Co167   1.988       .  S
O160        C173   1.279       .  A
O160       Co168   2.015       .  S
O161        C174   1.275       .  A
O161       Co169   2.014       .  S
O162        C174   1.283       .  A
O162      Co2207   2.007       .  S
O163        C173   1.307       .  A
O163       Co166   2.041   1_455  S
O164        C171   1.264       .  A
O164       Co169   1.981       .  S
O165        C172   1.267       .  A
O165       Co168   1.957       .  S
Co166      O2191   1.949       .  S
Co166      O2198   2.145       .  S
Co166       O170   1.905       .  S
Co167      O2187   1.958   1_455  S
Co167      O2202   2.021   1_455  S
Co167       O170   1.873   1_455  S
Co168       O170   1.891   1_455  S
Co169      O2210   2.057       .  S
O170      Co2209   1.868       .  S
C171        C234   1.509       .  S
C172        C189   1.491       .  S
C173        C245   1.534       .  S
C174        C178   1.493       .  S
C175        C176   1.406       .  A
C175        C180   1.413       .  A
C176        C177   1.416       .  A
C176        C181   1.431       .  S
C177        C178   1.393       .  A
C177        C184   1.434       .  S
C178        C179   1.410       .  A
C179        C180   1.413       .  A
C179        C182   1.439       .  S
C180        C183   1.451       .  S
C181        N188   1.153       .  T
C182        N187   1.154       .  T
C183        N185   1.157       .  T
C184        N186   1.156       .  T
C189        C190   1.402       .  A
C189        C194   1.433       .  A
C190        C191   1.396       .  A
C190        C195   1.451       .  S
C191        C192   1.424       .  A
C191        C198   1.444       .  S
C192        C193   1.410       .  A
C193        C194   1.412       .  A
C193        C196   1.452       .  S
C194        C197   1.456       .  S
C195        N202   1.156       .  T
C196        N201   1.157       .  T
C197        N199   1.159       .  T
C198       N1220   1.156       .  T
N200       C1218   1.156       .  T
C203        C204   1.431       .  A
C203        C208   1.423       .  A
C204        C205   1.429       .  A
C204        C209   1.448       .  S
C205        C206   1.418       .  A
C205        C212   1.452       .  S
C206        C207   1.426       .  A
C207        C208   1.412       .  A
C207        C210   1.450       .  S
C208        C211   1.455       .  S
C209        N216   1.157   1_545  T
C210        N215   1.156       .  T
C211        N213   1.158       .  T
C212        N214   1.158       .  T
C217        C218   1.406       .  A
C217        C222   1.428       .  A
C218        C219   1.417       .  A
C218        C223   1.452       .  S
C219        C220   1.443       .  A
C219        C226   1.449       .  S
C220        C221   1.406       .  A
C221        C222   1.411       .  A
C221        C224   1.450       .  S
C222        C225   1.453       .  S
C223        N230   1.157       .  T
C224        N229   1.157       .  T
C225        N227   1.158       .  T
C226        N228   1.157       .  T
C231        C232   1.397       .  A
C231        C236   1.391       .  A
C232        C233   1.417       .  A
C232        C237   1.448       .  S
C233        C234   1.438       .  A
C233        C240   1.444       .  S
C234        C235   1.396       .  A
C235        C236   1.406       .  A
C235        C238   1.430       .  S
C236        C239   1.434       .  S
C237        N244   1.158       .  T
C238       N1263   1.155       .  T
C239       N1261   1.155       .  T
C240        N242   1.155       .  T
N241       C1259   1.155       .  T
N243       C1258   1.154       .  T
C245        C246   1.443       .  A
C245        C250   1.402       .  A
C246        C247   1.427       .  A
C246        C251   1.447       .  S
C247        C248   1.406       .  A
C247        C254   1.452       .  S
C248        C249   1.442       .  A
C249        C250   1.418       .  A
C249        C252   1.446       .  S
C250        C253   1.453       .  S
C251        N258   1.154       .  T
C252        N257   1.153       .  T
C253        N255   1.159       .  T
C254        N256   1.159       .  T
C259        C260   1.404       .  A
C259        C264   1.427       .  A
C260        C261   1.385       .  A
C260        C265   1.445       .  S
C261        C262   1.402       .  A
C261        C268   1.431       .  S
C262        C263   1.414       .  A
C263        C264   1.426       .  A
C263        C266   1.443       .  S
C264        C267   1.447       .  S
C265       N1292   1.158       .  T
C266        N271   1.157       .  T
C267        N269   1.157       .  T
C268       N1290   1.151       .  T
N270       C1288   1.151       .  T
N272       C1285   1.158       .  T
C273        C274   1.429       .  A
C273        C278   1.416       .  A
C274        C275   1.410       .  A
C274        C279   1.446       .  S
C275        C276   1.398       .  A
C275        C282   1.449       .  S
C276        C277   1.409       .  A
C277        C278   1.423       .  A
C277        C280   1.445       .  S
C278        C281   1.446       .  S
C279        N286   1.155       .  T
C280       N1305   1.157   1_545  T
C281        N283   1.157       .  T
C282        N284   1.156       .  T
N285       C1300   1.157       .  T
C287        C288   1.440       .  A
C287        C292   1.407       .  A
C288        C289   1.429       .  A
C288        C293   1.451       .  S
C289        C290   1.412       .  A
C289        C296   1.450       .  S
C290        C291   1.419       .  A
C291        C292   1.427       .  A
C291        C294   1.437       .  S
C292        C295   1.443       .  S
C293        N300   1.157       .  T
C294        N299   1.156       .  T
C295        N297   1.157       .  T
C296        N298   1.157       .  T
C301        C302   1.440       .  A
C301        C306   1.410       .  A
C302        C303   1.422       .  A
C302        C307   1.443       .  S
C303        C304   1.403       .  A
C303        C310   1.452       .  S
C304        C305   1.411       .  A
C305        C306   1.416       .  A
C305        C308   1.436   1_554  S
C306        C309   1.447       .  S
C307        N314   1.154       .  T
C308        N823   1.158       .  T
C309        N311   1.157       .  T
C310        N312   1.158       .  T
N313        C818   1.158       .  T
C315        C316   1.414       .  A
C315        C320   1.420       .  A
C316        C317   1.407       .  A
C316        C321   1.447       .  S
C317        C318   1.394       .  A
C317        C324   1.440       .  S
C318        C319   1.400       .  A
C319        C320   1.401       .  A
C319        C322   1.445       .  S
C320        C323   1.453       .  S
C321        N328   1.157       .  T
C322        N327   1.155       .  T
C323        N325   1.157       .  T
C324        N836   1.156       .  T
N326        C834   1.156       .  T
C329        C330   1.419       .  A
C329        C334   1.421       .  A
C330        C331   1.406       .  A
C330        C335   1.453       .  S
C331        C332   1.421       .  A
C331        C338   1.456       .  S
C332        C333   1.411       .  A
C333        C334   1.413       .  A
C333        C336   1.450       .  S
C334        C337   1.449       .  S
C335        N342   1.158       .  T
C336        N341   1.158       .  T
C337        N339   1.156       .  T
C338        N850   1.157       .  T
N340        C848   1.156   1_554  T
C343        C344   1.427       .  A
C343        C348   1.408       .  A
C344        C345   1.410       .  A
C344        C349   1.449       .  S
C345        C346   1.405       .  A
C345        C352   1.453       .  S
C346        C347   1.430       .  A
C347        C348   1.408       .  A
C347        C350   1.452       .  S
C348        C351   1.455       .  S
C349        N356   1.156       .  T
C350        N355   1.158       .  T
C351        N353   1.157       .  T
C352        N354   1.157       .  T
C357        C358   1.407       .  A
C357        C362   1.443       .  A
C358        C359   1.425       .  A
C358        C363   1.451       .  S
C359        C360   1.438       .  A
C359        C366   1.449       .  S
C360        C361   1.402       .  A
C361        C362   1.415       .  A
C361        C364   1.453       .  S
C362        C365   1.454       .  S
C363        N370   1.157       .  T
C364        N369   1.157       .  T
C365        N367   1.158       .  T
C366        N368   1.157       .  T
C371        C372   1.425       .  A
C371        C376   1.419       .  A
C372        C373   1.408       .  A
C372        C377   1.445       .  S
C373        C374   1.396       .  A
C373        C380   1.443       .  S
C374        C375   1.407       .  A
C375        C376   1.438       .  A
C375        C378   1.441       .  S
C376        C379   1.441       .  S
C377        N384   1.155       .  T
C378        N383   1.157       .  T
C379        N381   1.156       .  T
C380        N382   1.155       .  T
C385        C386   1.399       .  A
C385        C390   1.421       .  A
C386        C387   1.399       .  A
C386        C391   1.455       .  S
C387        C388   1.425       .  A
C387        C394   1.438       .  S
C388        C389   1.416       .  A
C389        C390   1.428       .  A
C389        C392   1.446       .  S
C390        C393   1.448       .  S
C391        N398   1.156       .  T
C392        N397   1.157       .  T
C393        N395   1.158       .  T
C394        N396   1.153       .  T
C399        C400   1.411       .  A
C399        C404   1.435       .  A
C400        C401   1.411       .  A
C400        C405   1.453       .  S
C401        C402   1.421       .  A
C401        C408   1.442       .  S
C402        C403   1.408       .  A
C403        C404   1.413       .  A
C403        C406   1.454       .  S
C404        C407   1.451       .  S
C405        N412   1.158       .  T
C406        N411   1.158       .  T
C407        N409   1.156       .  T
C408        N410   1.153       .  T
C413        C414   1.411       .  A
C413        C418   1.434       .  A
C414        C415   1.417       .  A
C414        C419   1.452       .  S
C415        C416   1.435       .  A
C415        C422   1.452       .  S
C416        C417   1.416       .  A
C417        C418   1.427       .  A
C417        C420   1.451       .  S
C418        C421   1.451       .  S
C419        N426   1.157       .  T
C420        N425   1.157       .  T
C421        N423   1.158       .  T
C422        N424   1.158       .  T
C427        C428   1.404       .  A
C427        C432   1.443       .  A
C428        C429   1.410       .  A
C428        C433   1.451       .  S
C429        C430   1.429       .  A
C429        C436   1.452       .  S
C430        C431   1.402       .  A
C431        C432   1.415       .  A
C431        C434   1.452       .  S
C432        C435   1.450       .  S
C433        N440   1.157       .  T
C434        N439   1.158       .  T
C435        N437   1.157       .  T
C436        N438   1.157       .  T
C441        C442   1.402       .  A
C441        C446   1.408       .  A
C442        C443   1.394       .  A
C442        C447   1.435       .  S
C443        C444   1.400       .  A
C443        C450   1.449       .  S
C444        C445   1.411       .  A
C445        C446   1.431       .  A
C445        C448   1.439       .  S
C446        C449   1.442       .  S
C447        N454   1.152       .  T
C448        N453   1.157       .  T
C449        N451   1.158   1_554  T
C450        N452   1.157       .  T
C455        C456   1.394       .  A
C455        C460   1.398       .  A
C456        C457   1.397       .  A
C456        C461   1.428       .  S
C457        C458   1.409       .  A
C457        C464   1.449       .  S
C458        C459   1.429       .  A
C459        C460   1.401       .  A
C459        C462   1.455       .  S
C460        C463   1.450       .  S
C461        N468   1.152       .  T
C462        N467   1.158       .  T
C463        N465   1.157       .  T
C464        N466   1.157       .  T
C469        C470   1.442       .  A
C469        C474   1.399       .  A
C470        C471   1.426       .  A
C470        C475   1.448       .  S
C471        C472   1.408       .  A
C471        C478   1.448       .  S
C472        C473   1.422       .  A
C473        C474   1.389       .  A
C473        C476   1.448       .  S
C474        C477   1.451       .  S
C475       N2522   1.158       .  T
C476        N481   1.154       .  T
C477        N479   1.157       .  T
C478        N480   1.157       .  T
N482       C2515   1.157       .  T
C483        C484   1.431       .  A
C483        C488   1.406       .  A
C484        C485   1.413       .  A
C484        C489   1.451       .  S
C485        C486   1.408       .  A
C485        C492   1.452       .  S
C486        C487   1.442       .  A
C487        C488   1.406       .  A
C487        C490   1.457       .  S
C488        C491   1.456       .  S
C489        N496   1.158       .  T
C490       N2535   1.159       .  T
C491        N493   1.157       .  T
C492        N494   1.156       .  T
N495       C2530   1.158       .  T
C497        C498   1.422       .  A
C497        C502   1.409       .  A
C498        C499   1.398       .  A
C498        C503   1.448       .  S
C499        C500   1.410       .  A
C499        C506   1.453       .  S
C500        C501   1.434       .  A
C501        C502   1.414       .  A
C501        C504   1.454       .  S
C502        C505   1.455       .  S
C503        N510   1.156       .  T
C504        N509   1.158       .  T
C505        N507   1.158       .  T
C506        N508   1.157       .  T
O511        C519   1.273       .  A
O511       Co531   1.952       .  S
O512        C520   1.282       .  A
O512       Co532   2.000   1_556  S
O513        C521   1.262       .  A
O513       Co533   1.948       .  S
O514        C522   1.271       .  A
O514       Co534   1.981       .  S
O515        C521   1.278       .  A
O516        C522   1.287       .  A
O517        C520   1.280       .  A
O517       Co534   2.018       .  S
O518        C519   1.275       .  A
O518       Co533   2.008       .  S
C519       C1007   1.483       .  S
C520        C965   1.491       .  S
C521        C982   1.494       .  S
C522        C993   1.498       .  S
O523        C536   1.277       .  A
O524        C537   1.260       .  A
O525        C538   1.283       .  A
O525       Co533   2.007       .  S
O526        C539   1.281       .  A
O526       Co534   1.974       .  S
O527        C539   1.277       .  A
O527       Co532   2.020   1_556  S
O528        C538   1.277       .  A
O528       Co531   1.997       .  S
O529        C536   1.298       .  A
O529       Co534   2.059       .  S
O530        C537   1.290       .  A
O530       Co533   2.019       .  S
Co531       O535   1.945       .  S
Co533       O535   2.014       .  S
C536        C923   1.529       .  S
C537        C940   1.505       .  S
C538        C951   1.483       .  S
C539        C912   1.503       .  S
O540        C548   1.279       .  A
O540       Co560   2.038       .  S
O541        C549   1.255       .  A
O541       Co561   1.976       .  S
O542        C550   1.278       .  A
O543        C551   1.296       .  A
O544        C550   1.277       .  A
O544       Co561   2.035       .  S
O545        C551   1.263       .  A
O545       Co560   1.974       .  S
O546        C549   1.280       .  A
O546       Co563   2.014   1_556  S
O547        C548   1.260       .  A
O547       Co562   1.973       .  S
C548        C895   1.491       .  S
C549        C856   1.493       .  S
C550        C884   1.503       .  S
C551        C870   1.501       .  S
O552        C565   1.299       .  A
O552       Co560   2.082       .  S
O553        C566   1.274       .  A
O553       Co561   1.998       .  S
O554        C567   1.286       .  A
O554       Co562   2.054       .  S
O555        C568   1.287       .  A
O555       Co563   2.049   1_556  S
O556        C568   1.274       .  A
O556       Co561   1.974       .  S
O557        C567   1.283       .  A
O557       Co560   2.002       .  S
O558        C565   1.256       .  A
O559        C566   1.255       .  A
Co560       O564   2.107       .  S
Co562       O564   2.108       .  S
C565        C797   1.551       .  S
C566        C842   1.495       .  S
C567        C814   1.511       .  S
C568        C828   1.479       .  S
O569        C577   1.269       .  A
O569       Co589   2.006       .  S
O570        C578   1.279       .  A
O570       Co590   1.891       .  S
O571        C579   1.250       .  A
O571      Co1611   1.943       .  S
O572        C580   1.270       .  A
O572       Co592   2.019       .  S
O573        C579   1.289       .  A
O573       Co590   2.073       .  S
O574        C580   1.277       .  A
O574       Co589   1.990       .  S
O575        C578   1.306       .  A
O575      Co1612   2.104       .  S
O576        C577   1.274       .  A
O576       Co591   2.024       .  S
C577        C786   1.500       .  S
C578        C741   1.469       .  S
C579        C758   1.526       .  S
C580        C772   1.502       .  S
O581        C594   1.259       .  A
O581       Co589   1.985       .  S
O582        C595   1.282       .  A
O582       Co590   2.006       .  S
O583        C596   1.281       .  A
O583       Co591   2.010       .  S
O584        C597   1.280       .  A
O584      Co1612   2.024       .  S
O585        C597   1.290       .  A
O585       Co590   2.127       .  S
O586        C596   1.277       .  A
O586       Co589   2.002       .  S
O587        C594   1.290       .  A
O587       Co592   2.052       .  S
O588        C595   1.291       .  A
O588      Co1611   2.005       .  S
Co589       O593   2.066       .  S
Co590      O1613   1.939       .  S
Co591      O1591   1.947   1_545  S
Co591      O1608   2.008   1_545  S
Co591       O593   2.099       .  S
Co592      O1595   2.104   1_545  S
Co592      O1604   2.019   1_545  S
Co592       O593   2.130       .  S
O593      Co1610   1.940   1_545  S
C594        C811   1.530       .  S
C595        C937   1.504       .  S
C596        C954   1.490       .  S
C597        C800   1.548       .  S
O598        C606   1.271       .  A
O598       Co618   1.988   1_545  S
O599        C607   1.305       .  A
O599      Co1639   2.064       .  S
O600        C608   1.286       .  A
O600       Co620   2.002       .  S
O601        C609   1.283       .  A
O601       Co621   1.991       .  S
O602        C608   1.276       .  A
O602       Co619   2.012   1_545  S
O603        C609   1.274       .  A
O603      Co1638   2.009       .  S
O604        C607   1.289       .  A
O604       Co621   2.006       .  S
O605        C606   1.279       .  A
O605       Co620   1.980       .  S
C606        C727   1.502       .  S
C607        C685   1.496       .  S
C608        C713   1.516       .  S
C609        C702   1.506       .  S
O610        C623   1.295       .  A
O610      Co1638   2.024       .  S
O611        C624   1.300       .  A
O611       Co619   2.031   1_545  S
O612        C625   1.273       .  A
O612       Co620   1.985       .  S
O613        C626   1.265       .  A
O613       Co621   1.948       .  S
O614        C626   1.281       .  A
O614      Co1639   2.046       .  S
O615        C625   1.297       .  A
O615       Co618   2.043   1_545  S
O616        C623   1.270       .  A
O616       Co621   1.988       .  S
O617        C624   1.276       .  A
O617       Co620   1.978       .  S
Co618      O1623   1.999       .  S
Co618      O1630   2.032       .  S
Co618       O622   2.004       .  S
Co619      O1619   1.978       .  S
Co619      O1634   2.044       .  S
Co619       O622   1.946       .  S
Co620       O622   1.896   1_545  S
Co621      O1642   1.928       .  S
O622      Co1641   1.899       .  S
C623        C909   1.515       .  S
C624        C839   1.510       .  S
C625        C926   1.536       .  S
C626        C825   1.486       .  S
O627        C635   1.285       .  A
O627       Co647   1.987       .  S
O628        C636   1.295       .  A
O628       Co648   2.034       .  S
O629        C637   1.261       .  A
O629      Co2689   1.964       .  S
O630        C638   1.262       .  A
O630      Co2690   1.966   1_455  S
O631        C637   1.294       .  A
O631       Co648   2.048       .  S
O632        C638   1.285       .  A
O632       Co647   2.005       .  S
O633        C636   1.282       .  A
O633       Co650   2.017       .  S
O634        C635   1.276       .  A
O634       Co649   1.995   1_455  S
C635       C1010   1.497       .  S
C636        C881   1.522       .  S
C637        C898   1.513       .  S
C638        C996   1.502       .  S
O639        C652   1.263       .  A
O639       Co647   1.957       .  S
O640        C653   1.273       .  A
O640       Co648   2.017       .  S
O641        C654   1.296       .  A
O641       Co649   2.051   1_455  S
O642        C655   1.286       .  A
O642       Co650   2.019       .  S
O643        C655   1.265       .  A
O643       Co648   1.973       .  S
O644        C654   1.281       .  A
O644       Co647   2.017       .  S
O645        C652   1.299       .  A
O645      Co2690   2.043   1_455  S
O646        C653   1.291       .  A
O646      Co2689   2.005       .  S
Co647      O2691   1.944   1_455  S
Co648       O651   2.065       .  S
Co649      O2669   1.969       .  S
Co649      O2686   2.012       .  S
Co649      O2691   1.949       .  S
Co650      O2670   1.914       .  S
Co650      O2685   2.024       .  S
Co650       O651   2.053       .  S
O651      Co2689   1.965       .  S
O651      Co2687   2.022       .  S
C652        C730   1.505       .  S
C653        C769   1.513       .  S
C654        C783   1.519       .  S
C655        C716   1.507       .  S
O656        C664   1.275       .  A
O656       Co676   1.993   1_455  S
O657        C665   1.267       .  A
O657      Co2717   1.971       .  S
O658        C666   1.287       .  A
O658       Co678   1.996       .  S
O659        C667   1.294       .  A
O659       Co679   2.036       .  S
O660        C666   1.269       .  A
O660       Co677   1.989       .  S
O661        C667   1.263       .  A
O661      Co2716   1.955       .  S
O662        C665   1.282       .  A
O662       Co679   2.004       .  S
O663        C664   1.291       .  A
O663       Co678   2.002       .  S
C664        C979   1.483       .  S
C665        C853   1.494       .  S
C666        C968   1.503       .  S
C667        C867   1.513       .  S
O668        C681   1.294       .  A
O668      Co2716   2.005       .  S
O669        C682   1.292       .  A
O669       Co677   2.015       .  S
O670        C683   1.279       .  A
O670       Co678   2.009       .  S
O671        C684   1.277       .  A
O671       Co679   2.011       .  S
O672        C684   1.285       .  A
O672      Co2717   2.007       .  S
O673        C683   1.303       .  A
O673       Co676   2.059   1_455  S
O674        C681   1.263       .  A
O674       Co679   1.968       .  S
O675        C682   1.266       .  A
O675       Co678   1.967       .  S
Co676      O2701   1.972       .  S
Co676      O2708   2.011       .  S
Co676       O680   1.944       .  S
Co677      O2697   1.966   1_455  S
Co677      O2712   2.004   1_455  S
Co677       O680   2.026   1_455  S
Co678       O680   1.926   1_455  S
Co679      O2720   2.024       .  S
O680      Co2719   2.029       .  S
C681        C744   1.496       .  S
C682        C699   1.511       .  S
C683        C755   1.533       .  S
C684        C688   1.490       .  S
C685        C686   1.406       .  A
C685        C690   1.414       .  A
C686        C687   1.417       .  A
C686        C691   1.431       .  S
C687        C688   1.395       .  A
C687        C694   1.434       .  S
C688        C689   1.408       .  A
C689        C690   1.410       .  A
C689        C692   1.440       .  S
C690        C693   1.451       .  S
C691        N698   1.153       .  T
C692        N697   1.153       .  T
C693        N695   1.157       .  T
C694        N696   1.156       .  T
C699        C700   1.404       .  A
C699        C704   1.440       .  A
C700        C701   1.410       .  A
C700        C705   1.450       .  S
C701        C702   1.431       .  A
C701        C708   1.445       .  S
C702        C703   1.408       .  A
C703        C704   1.414       .  A
C703        C706   1.453       .  S
C704        C707   1.456       .  S
C705        N712   1.156       .  T
C706        N711   1.157       .  T
C707        N709   1.159       .  T
C708       N1730   1.156       .  T
N710       C1728   1.156       .  T
C713        C714   1.433       .  A
C713        C718   1.414       .  A
C714        C715   1.421       .  A
C714        C719   1.450       .  S
C715        C716   1.412       .  A
C715        C722   1.454       .  S
C716        C717   1.428       .  A
C717        C718   1.408       .  A
C717        C720   1.450       .  S
C718        C721   1.454       .  S
C719        N726   1.157   1_545  T
C720        N725   1.156       .  T
C721        N723   1.158       .  T
C722        N724   1.158       .  T
C727        C728   1.404       .  A
C727        C732   1.427       .  A
C728        C729   1.410       .  A
C728        C733   1.453       .  S
C729        C730   1.441       .  A
C729        C736   1.448       .  S
C730        C731   1.405       .  A
C731        C732   1.409       .  A
C731        C734   1.450       .  S
C732        C735   1.452       .  S
C733        N740   1.157       .  T
C734        N739   1.156       .  T
C735        N737   1.158       .  T
C736        N738   1.157       .  T
C741        C742   1.395       .  A
C741        C746   1.390       .  A
C742        C743   1.412       .  A
C742        C747   1.448       .  S
C743        C744   1.437       .  A
C743        C750   1.446       .  S
C744        C745   1.394       .  A
C745        C746   1.401       .  A
C745        C748   1.430       .  S
C746        C749   1.432       .  S
C747        N754   1.158       .  T
C748       N1773   1.155       .  T
C749       N1771   1.154       .  T
C750        N752   1.155       .  T
N751       C1769   1.154       .  T
N753       C1768   1.154       .  T
C755        C756   1.441       .  A
C755        C760   1.409       .  A
C756        C757   1.425       .  A
C756        C761   1.446       .  S
C757        C758   1.407       .  A
C757        C764   1.453       .  S
C758        C759   1.439       .  A
C759        C760   1.418       .  A
C759        C762   1.453       .  S
C760        C763   1.452       .  S
C761        N768   1.155       .  T
C762        N767   1.157       .  T
C763        N765   1.158       .  T
C764        N766   1.158       .  T
C769        C770   1.399       .  A
C769        C774   1.437       .  A
C770        C771   1.393       .  A
C770        C775   1.441       .  S
C771        C772   1.402       .  A
C771        C778   1.433       .  S
C772        C773   1.413       .  A
C773        C774   1.431       .  A
C773        C776   1.445       .  S
C774        C777   1.448       .  S
C775       N1802   1.158       .  T
C776        N781   1.157       .  T
C777        N779   1.157       .  T
C778       N1800   1.150       .  T
N780       C1798   1.151       .  T
N782       C1795   1.158       .  T
C783        C784   1.431       .  A
C783        C788   1.417       .  A
C784        C785   1.414       .  A
C784        C789   1.445       .  S
C785        C786   1.399       .  A
C785        C792   1.451       .  S
C786        C787   1.409       .  A
C787        C788   1.425       .  A
C787        C790   1.445       .  S
C788        C791   1.445       .  S
C789        N796   1.154       .  T
C790       N1815   1.157   1_545  T
C791        N793   1.157       .  T
C792        N794   1.157       .  T
N795       C1810   1.157       .  T
C797        C798   1.441       .  A
C797        C802   1.408       .  A
C798        C799   1.433       .  A
C798        C803   1.450       .  S
C799        C800   1.415       .  A
C799        C806   1.450       .  S
C800        C801   1.420       .  A
C801        C802   1.430       .  A
C801        C804   1.437       .  S
C802        C805   1.442       .  S
C803        N810   1.157       .  T
C804        N809   1.157       .  T
C805        N807   1.157       .  T
C806        N808   1.158       .  T
C811        C812   1.441       .  A
C811        C816   1.410       .  A
C812        C813   1.418       .  A
C812        C817   1.446       .  S
C813        C814   1.403       .  A
C813        C820   1.452       .  S
C814        C815   1.413       .  A
C815        C816   1.418       .  A
C815        C818   1.438       .  S
C816        C819   1.447       .  S
C817        N824   1.155       .  T
C819        N821   1.157       .  T
C820        N822   1.157       .  T
C825        C826   1.414       .  A
C825        C830   1.419       .  A
C826        C827   1.406       .  A
C826        C831   1.447       .  S
C827        C828   1.396       .  A
C827        C834   1.438       .  S
C828        C829   1.404       .  A
C829        C830   1.407       .  A
C829        C832   1.444       .  S
C830        C833   1.452       .  S
C831        N838   1.157       .  T
C832        N837   1.155       .  T
C833        N835   1.157       .  T
C839        C840   1.408       .  A
C839        C844   1.434       .  A
C840        C841   1.409       .  A
C840        C845   1.449       .  S
C841        C842   1.427       .  A
C841        C848   1.453       .  S
C842        C843   1.409       .  A
C843        C844   1.415       .  A
C843        C846   1.453       .  S
C844        C847   1.451       .  S
C845        N852   1.158       .  T
C846        N851   1.159       .  T
C847        N849   1.156       .  T
C853        C854   1.428       .  A
C853        C858   1.408       .  A
C854        C855   1.411       .  A
C854        C859   1.451       .  S
C855        C856   1.406       .  A
C855        C862   1.452       .  S
C856        C857   1.429       .  A
C857        C858   1.409       .  A
C857        C860   1.452       .  S
C858        C861   1.454       .  S
C859        N866   1.156       .  T
C860        N865   1.158       .  T
C861        N863   1.158       .  T
C862        N864   1.157       .  T
C867        C868   1.403       .  A
C867        C872   1.437       .  A
C868        C869   1.418       .  A
C868        C873   1.452       .  S
C869        C870   1.438       .  A
C869        C876   1.448       .  S
C870        C871   1.399       .  A
C871        C872   1.407       .  A
C871        C874   1.453       .  S
C872        C875   1.455       .  S
C873        N880   1.158       .  T
C874        N879   1.157       .  T
C875        N877   1.158       .  T
C876        N878   1.157       .  T
C881        C882   1.424       .  A
C881        C886   1.418       .  A
C882        C883   1.407       .  A
C882        C887   1.448       .  S
C883        C884   1.396       .  A
C883        C890   1.442       .  S
C884        C885   1.403       .  A
C885        C886   1.433       .  A
C885        C888   1.441       .  S
C886        C889   1.440       .  S
C887        N894   1.156       .  T
C888        N893   1.157       .  T
C889        N891   1.155       .  T
C890        N892   1.155       .  T
C895        C896   1.397       .  A
C895        C900   1.421       .  A
C896        C897   1.396       .  A
C896        C901   1.456       .  S
C897        C898   1.435       .  A
C897        C904   1.445       .  S
C898        C899   1.414       .  A
C899        C900   1.428       .  A
C899        C902   1.444       .  S
C900        C903   1.447       .  S
C901        N908   1.157       .  T
C902        N907   1.157       .  T
C903        N905   1.157       .  T
C904        N906   1.155       .  T
C909        C910   1.409       .  A
C909        C914   1.441       .  A
C910        C911   1.413       .  A
C910        C915   1.453       .  S
C911        C912   1.424       .  A
C911        C918   1.441       .  S
C912        C913   1.406       .  A
C913        C914   1.414       .  A
C913        C916   1.455       .  S
C914        C917   1.452       .  S
C915        N922   1.158       .  T
C916        N921   1.158       .  T
C917        N919   1.157       .  T
C918        N920   1.153       .  T
C923        C924   1.412       .  A
C923        C928   1.434       .  A
C924        C925   1.418       .  A
C924        C929   1.451       .  S
C925        C926   1.434       .  A
C925        C932   1.452       .  S
C926        C927   1.415       .  A
C927        C928   1.427       .  A
C927        C930   1.450       .  S
C928        C931   1.451       .  S
C929        N936   1.158       .  T
C930        N935   1.158       .  T
C931        N933   1.157   1_556  T
C932        N934   1.157       .  T
C937        C938   1.404       .  A
C937        C942   1.445       .  A
C938        C939   1.410       .  A
C938        C943   1.451       .  S
C939        C940   1.431       .  A
C939        C946   1.452       .  S
C940        C941   1.400       .  A
C941        C942   1.412       .  A
C941        C944   1.452       .  S
C942        C945   1.450       .  S
C943        N950   1.158       .  T
C944        N949   1.158       .  T
C945        N947   1.156       .  T
C946        N948   1.157       .  T
C951        C952   1.401       .  A
C951        C956   1.406       .  A
C952        C953   1.394       .  A
C952        C957   1.438       .  S
C953        C954   1.402       .  A
C953        C960   1.448       .  S
C954        C955   1.413       .  A
C955        C956   1.429       .  A
C955        C958   1.438       .  S
C956        C959   1.443       .  S
C957        N964   1.153       .  T
C958        N963   1.156       .  T
C959        N961   1.157       .  T
C960        N962   1.157       .  T
C965        C966   1.403       .  A
C965        C970   1.401       .  A
C966        C967   1.409       .  A
C966        C971   1.420       .  S
C967        C968   1.399       .  A
C967        C974   1.445       .  S
C968        C969   1.429       .  A
C969        C970   1.411       .  A
C969        C972   1.453       .  S
C970        C973   1.447       .  S
C971        N978   1.150       .  T
C972        N977   1.157       .  T
C973        N975   1.156       .  T
C974        N976   1.157       .  T
C979        C980   1.437       .  A
C979        C984   1.399       .  A
C980        C981   1.422       .  A
C980        C985   1.448       .  S
C981        C982   1.409       .  A
C981        C988   1.449       .  S
C982        C983   1.415       .  A
C983        C984   1.378       .  A
C983        C986   1.448       .  S
C984        C987   1.451       .  S
C985       N3032   1.158       .  T
C986        N991   1.154       .  T
C987        N989   1.156       .  T
C988        N990   1.158       .  T
N992       C3025   1.158       .  T
C993        C994   1.427       .  A
C993        C998   1.407       .  A
C994        C995   1.414       .  A
C994        C999   1.450       .  S
C995        C996   1.412       .  A
C995       C1002   1.450       .  S
C996        C997   1.440       .  A
C997        C998   1.408       .  A
C997       C1000   1.455       .  S
C998       C1001   1.455       .  S
C999       N1006   1.158       .  T
C1000      N3045   1.159       .  T
C1001      N1003   1.157       .  T
C1002      N1004   1.156       .  T
N1005      C3040   1.157       .  T
C1007      C1008   1.420       .  A
C1007      C1012   1.408       .  A
C1008      C1009   1.397       .  A
C1008      C1013   1.448       .  S
C1009      C1010   1.411       .  A
C1009      C1016   1.454       .  S
C1010      C1011   1.434       .  A
C1011      C1012   1.410       .  A
C1011      C1014   1.455       .  S
C1012      C1015   1.455       .  S
C1013      N1020   1.156       .  T
C1014      N1019   1.158       .  T
C1015      N1017   1.158       .  T
C1016      N1018   1.157       .  T
O1021      C1029   1.289       .  A
O1021     Co1041   2.040       .  S
O1022      C1030   1.279       .  A
O1022     Co1042   1.998       .  S
O1023      C1031   1.262       .  A
O1023     Co1043   1.934       .  S
O1024      C1032   1.269       .  A
O1024     Co1044   1.969       .  S
O1025      C1031   1.285       .  A
O1025     Co1552   2.011   1_554  S
O1026      C1032   1.287       .  A
O1026     Co1551   2.008       .  S
O1027      C1030   1.281       .  A
O1027     Co1044   2.025       .  S
O1028      C1029   1.267       .  A
O1028     Co1043   1.983       .  S
C1029      C1517   1.523       .  S
C1030      C1475   1.489       .  S
C1031      C1492   1.489       .  S
C1032      C1503   1.488       .  S
O1033      C1046   1.277       .  A
O1033     Co1551   2.002       .  S
O1034      C1047   1.267       .  A
O1034     Co1552   1.973   1_554  S
O1035      C1048   1.289       .  A
O1035     Co1043   2.026       .  S
O1036      C1049   1.278       .  A
O1036     Co1044   1.963       .  S
O1037      C1049   1.278       .  A
O1037     Co1042   2.024       .  S
O1038      C1048   1.274       .  A
O1038     Co1041   1.979       .  S
O1039      C1046   1.297       .  A
O1039     Co1044   2.057       .  S
O1040      C1047   1.291       .  A
O1040     Co1043   2.011       .  S
Co1041     O1536   1.917   1_554  S
Co1041     O1543   2.123   1_554  S
Co1041     O1045   1.966       .  S
Co1042     O1535   2.015       .  S
Co1042     O1544   1.978       .  S
Co1042     O1555   2.055       .  S
Co1043     O1045   2.007       .  S
Co1044     O1555   1.951       .  S
O1045     Co1552   2.032   1_554  S
O1045     Co1554   1.957   1_554  S
C1046      C1433   1.527       .  S
C1047      C1450   1.504       .  S
C1048      C1461   1.490       .  S
C1049      C1422   1.498       .  S
O1050      C1058   1.279       .  A
O1050     Co1070   2.036       .  S
O1051      C1059   1.252       .  A
O1051     Co1071   1.966       .  S
O1052      C1060   1.280       .  A
O1052     Co1582   2.012       .  S
O1053      C1061   1.297       .  A
O1053     Co1583   2.034       .  S
O1054      C1060   1.278       .  A
O1054     Co1071   2.044       .  S
O1055      C1061   1.263       .  A
O1055     Co1070   1.975       .  S
O1056      C1059   1.278       .  A
O1056     Co1073   2.011       .  S
O1057      C1058   1.258       .  A
O1057     Co1072   1.967       .  S
C1058      C1405   1.487       .  S
C1059      C1366   1.485       .  S
C1060      C1394   1.510       .  S
C1061      C1380   1.502       .  S
O1062      C1075   1.296       .  A
O1062     Co1070   2.065       .  S
O1063      C1076   1.268       .  A
O1063     Co1071   1.982       .  S
O1064      C1077   1.285       .  A
O1064     Co1072   2.053       .  S
O1065      C1078   1.287       .  A
O1065     Co1073   2.046       .  S
O1066      C1078   1.272       .  A
O1066     Co1071   1.970       .  S
O1067      C1077   1.282       .  A
O1067     Co1070   2.002       .  S
O1068      C1075   1.257       .  A
O1068     Co1583   1.985       .  S
O1069      C1076   1.254       .  A
O1069     Co1582   1.970       .  S
Co1070     O1074   2.106       .  S
Co1071     O1584   2.098       .  S
Co1072     O1562   2.007   1_554  S
Co1072     O1579   1.966   1_554  S
Co1072     O1074   2.105       .  S
Co1073     O1563   2.028       .  S
Co1073     O1578   1.980       .  S
Co1073     O1584   2.090       .  S
O1074     Co1581   2.099   1_554  S
O1074     Co1583   2.095       .  S
C1075      C1307   1.539       .  S
C1076      C1352   1.481       .  S
C1077      C1324   1.512       .  S
C1078      C1338   1.476       .  S
O1079      C1087   1.264       .  A
O1079     Co1099   1.990       .  S
O1080      C1088   1.279       .  A
O1080     Co1100   1.894       .  S
O1081      C1089   1.252       .  A
O1082      C1090   1.271       .  A
O1082     Co1102   2.016       .  S
O1083      C1089   1.290       .  A
O1083     Co1100   2.077       .  S
O1084      C1090   1.277       .  A
O1084     Co1099   1.992       .  S
O1085      C1088   1.306       .  A
O1086      C1087   1.270       .  A
O1086     Co1101   2.014       .  S
C1087      C1296   1.485       .  S
C1088      C1251   1.474       .  S
C1089      C1268   1.531       .  S
C1090      C1282   1.499       .  S
O1091      C1104   1.256       .  A
O1091     Co1099   1.979       .  S
O1092      C1105   1.281       .  A
O1092     Co1100   2.007       .  S
O1093      C1106   1.281       .  A
O1093     Co1101   1.997       .  S
O1094      C1107   1.279       .  A
O1095      C1107   1.288       .  A
O1095     Co1100   2.115       .  S
O1096      C1106   1.279       .  A
O1096     Co1099   2.014       .  S
O1097      C1104   1.291       .  A
O1097     Co1102   2.063       .  S
O1098      C1105   1.290       .  A
Co1099     O1103   2.066       .  S
Co1101     O1103   2.097       .  S
Co1102     O1103   2.121       .  S
C1104      C1321   1.533       .  S
C1105      C1447   1.500       .  S
C1106      C1464   1.486       .  S
C1107      C1310   1.538       .  S
O1108      C1116   1.271       .  A
O1108     Co1128   1.999       .  S
O1109      C1117   1.305       .  A
O1110      C1118   1.284       .  A
O1110     Co1130   1.980       .  S
O1111      C1119   1.282       .  A
O1111     Co1131   1.988       .  S
O1112      C1118   1.310       .  A
O1112     Co1129   2.099       .  S
O1113      C1119   1.274       .  A
O1114      C1117   1.289       .  A
O1114     Co1131   2.003       .  S
O1115      C1116   1.280       .  A
O1115     Co1130   1.995       .  S
C1116      C1237   1.519       .  S
C1117      C1195   1.497       .  S
C1118      C1223   1.525       .  S
C1119      C1212   1.502       .  S
O1120      C1133   1.289       .  A
O1121      C1134   1.280       .  A
O1121     Co1129   2.031       .  S
O1122      C1135   1.270       .  A
O1122     Co1130   1.991       .  S
O1123      C1136   1.264       .  A
O1123     Co1131   1.942       .  S
O1124      C1136   1.282       .  A
O1125      C1135   1.292       .  A
O1125     Co1128   2.030       .  S
O1126      C1133   1.270       .  A
O1126     Co1131   1.993       .  S
O1127      C1134   1.267       .  A
O1127     Co1130   1.954       .  S
Co1128     O1132   2.030       .  S
Co1129     O1132   2.036       .  S
Co1130     O1132   1.917       .  S
C1133      C1419   1.510       .  S
C1134      C1349   1.498       .  S
C1135      C1436   1.535       .  S
C1136      C1335   1.485       .  S
O1137      C1145   1.285       .  A
O1137     Co1157   1.978       .  S
O1138      C1146   1.294       .  A
O1138     Co1158   2.046       .  S
O1139      C1147   1.268       .  A
O1139     Co3199   1.958       .  S
O1140      C1148   1.259       .  A
O1140     Co3200   1.957       .  S
O1141      C1147   1.299       .  A
O1141     Co1158   2.053       .  S
O1142      C1148   1.282       .  A
O1142     Co1157   1.997       .  S
O1143      C1146   1.276       .  A
O1143     Co1160   2.000       .  S
O1144      C1145   1.314       .  A
O1144     Co1159   2.116   1_455  S
C1145      C1520   1.528       .  S
C1146      C1391   1.530       .  S
C1147      C1408   1.506       .  S
C1148      C1506   1.496       .  S
O1149      C1162   1.264       .  A
O1149     Co1157   1.984       .  S
O1150      C1163   1.269       .  A
O1150     Co1158   1.997       .  S
O1151      C1164   1.271       .  A
O1151     Co1159   2.027   1_455  S
O1152      C1165   1.289       .  A
O1152     Co1160   2.020       .  S
O1153      C1165   1.273       .  A
O1153     Co1158   1.991       .  S
O1154      C1164   1.267       .  A
O1154     Co1157   1.978       .  S
O1155      C1162   1.302       .  A
O1155     Co3200   2.051       .  S
O1156      C1163   1.291       .  A
O1156     Co3199   2.015       .  S
Co1157     O3201   1.973   1_455  S
Co1158     O1161   2.037       .  S
Co1159     O3179   2.061       .  S
Co1159     O3196   2.009       .  S
Co1159     O3201   2.030       .  S
Co1160     O3180   1.952       .  S
Co1160     O3195   2.044       .  S
Co1160     O1161   2.025       .  S
O1161     Co3197   1.941       .  S
O1161     Co3199   1.955       .  S
C1162      C1240   1.523       .  S
C1163      C1279   1.511       .  S
C1164      C1293   1.494       .  S
C1165      C1226   1.514       .  S
O1166      C1174   1.274       .  A
O1166     Co1186   1.990   1_455  S
O1167      C1175   1.263       .  A
O1167     Co3227   1.957       .  S
O1168      C1176   1.286       .  A
O1168     Co1188   2.000       .  S
O1169      C1177   1.295       .  A
O1169     Co1189   2.038       .  S
O1170      C1176   1.270       .  A
O1170     Co1187   1.989       .  S
O1171      C1177   1.264       .  A
O1171     Co3226   1.962       .  S
O1172      C1175   1.281       .  A
O1172     Co1189   2.002       .  S
O1173      C1174   1.291       .  A
O1173     Co1188   2.004       .  S
C1174      C1489   1.478       .  S
C1175      C1363   1.485       .  S
C1176      C1478   1.505       .  S
C1177      C1377   1.515       .  S
O1178      C1191   1.297       .  A
O1178     Co3226   2.018       .  S
O1179      C1192   1.288       .  A
O1179     Co1187   2.003       .  S
O1180      C1193   1.281       .  A
O1180     Co1188   2.017       .  S
O1181      C1194   1.277       .  A
O1181     Co1189   2.009       .  S
O1182      C1194   1.288       .  A
O1182     Co3227   2.011       .  S
O1183      C1193   1.304       .  A
O1183     Co1186   2.062   1_455  S
O1184      C1191   1.263       .  A
O1184     Co1189   1.969       .  S
O1185      C1192   1.268       .  A
O1185     Co1188   1.973       .  S
Co1186     O3211   1.972       .  S
Co1186     O3218   2.011       .  S
Co1186     O1190   1.944       .  S
Co1187     O3207   1.965   1_455  S
Co1187     O3222   2.002   1_455  S
Co1187     O1190   2.020   1_455  S
Co1188     O1190   1.941   1_455  S
Co1189     O3230   2.027       .  S
O1190     Co3229   2.030       .  S
C1191      C1254   1.503       .  S
C1192      C1209   1.505       .  S
C1193      C1265   1.535       .  S
C1194      C1198   1.489       .  S
C1195      C1196   1.405       .  A
C1195      C1200   1.415       .  A
C1196      C1197   1.416       .  A
C1196      C1201   1.431       .  S
C1197      C1198   1.393       .  A
C1197      C1204   1.433       .  S
C1198      C1199   1.408       .  A
C1199      C1200   1.412       .  A
C1199      C1202   1.441       .  S
C1200      C1203   1.450       .  S
C1201      N1208   1.153       .  T
C1202      N1207   1.154       .  T
C1203      N1205   1.157       .  T
C1204      N1206   1.156       .  T
C1209      C1210   1.404       .  A
C1209      C1214   1.437       .  A
C1210      C1211   1.404       .  A
C1210      C1215   1.450       .  S
C1211      C1212   1.428       .  A
C1211      C1218   1.445       .  S
C1212      C1213   1.409       .  A
C1213      C1214   1.415       .  A
C1213      C1216   1.452       .  S
C1214      C1217   1.455       .  S
C1215      N1222   1.157       .  T
C1216      N1221   1.157       .  T
C1217      N1219   1.159       .  T
C1223      C1224   1.430       .  A
C1223      C1228   1.421       .  A
C1224      C1225   1.426       .  A
C1224      C1229   1.448       .  S
C1225      C1226   1.415       .  A
C1225      C1232   1.452       .  S
C1226      C1227   1.426       .  A
C1227      C1228   1.409       .  A
C1227      C1230   1.451       .  S
C1228      C1231   1.455       .  S
C1229      N1236   1.157       .  T
C1230      N1235   1.156       .  T
C1231      N1233   1.158       .  T
C1232      N1234   1.157       .  T
C1237      C1238   1.407       .  A
C1237      C1242   1.428       .  A
C1238      C1239   1.419       .  A
C1238      C1243   1.452       .  S
C1239      C1240   1.443       .  A
C1239      C1246   1.447       .  S
C1240      C1241   1.409       .  A
C1241      C1242   1.415       .  A
C1241      C1244   1.448       .  S
C1242      C1245   1.453       .  S
C1243      N1250   1.158       .  T
C1244      N1249   1.157       .  T
C1245      N1247   1.158       .  T
C1246      N1248   1.157       .  T
C1251      C1252   1.397       .  A
C1251      C1256   1.389       .  A
C1252      C1253   1.415       .  A
C1252      C1257   1.448       .  S
C1253      C1254   1.439       .  A
C1253      C1260   1.446       .  S
C1254      C1255   1.395       .  A
C1255      C1256   1.402       .  A
C1255      C1258   1.428       .  S
C1256      C1259   1.433       .  S
C1257      N1264   1.157       .  T
C1260      N1262   1.156       .  T
C1265      C1266   1.439       .  A
C1265      C1270   1.408       .  A
C1266      C1267   1.427       .  A
C1266      C1271   1.446       .  S
C1267      C1268   1.409       .  A
C1267      C1274   1.452       .  S
C1268      C1269   1.441       .  A
C1269      C1270   1.420       .  A
C1269      C1272   1.453       .  S
C1270      C1273   1.452       .  S
C1271      N1278   1.156       .  T
C1272      N1277   1.156   1_565  T
C1273      N1275   1.158       .  T
C1274      N1276   1.158       .  T
C1279      C1280   1.396       .  A
C1279      C1284   1.437       .  A
C1280      C1281   1.392       .  A
C1280      C1285   1.441       .  S
C1281      C1282   1.402       .  A
C1281      C1288   1.435       .  S
C1282      C1283   1.413       .  A
C1283      C1284   1.430       .  A
C1283      C1286   1.445       .  S
C1284      C1287   1.449       .  S
C1286      N1291   1.157       .  T
C1287      N1289   1.157       .  T
C1293      C1294   1.415       .  A
C1293      C1298   1.420       .  A
C1294      C1295   1.407       .  A
C1294      C1299   1.448       .  S
C1295      C1296   1.407       .  A
C1295      C1302   1.446       .  S
C1296      C1297   1.405       .  A
C1297      C1298   1.414       .  A
C1297      C1300   1.447       .  S
C1298      C1301   1.449       .  S
C1299      N1306   1.155       .  T
C1301      N1303   1.157       .  T
C1302      N1304   1.155       .  T
C1307      C1308   1.438       .  A
C1307      C1312   1.405       .  A
C1308      C1309   1.431       .  A
C1308      C1313   1.450       .  S
C1309      C1310   1.415       .  A
C1309      C1316   1.449       .  S
C1310      C1311   1.416       .  A
C1311      C1312   1.421       .  A
C1311      C1314   1.435       .  S
C1312      C1315   1.442       .  S
C1313      N1320   1.157   1_554  T
C1314      N1319   1.157       .  T
C1315      N1317   1.156       .  T
C1316      N1318   1.157       .  T
C1321      C1322   1.442       .  A
C1321      C1326   1.410       .  A
C1322      C1323   1.421       .  A
C1322      C1327   1.444       .  S
C1323      C1324   1.402       .  A
C1323      C1330   1.452       .  S
C1324      C1325   1.409       .  A
C1325      C1326   1.420       .  A
C1325      C1328   1.439   1_554  S
C1326      C1329   1.446       .  S
C1327      N1334   1.154       .  T
C1328      N1843   1.158       .  T
C1329      N1331   1.157       .  T
C1330      N1332   1.157       .  T
N1333      C1838   1.158       .  T
C1335      C1336   1.415       .  A
C1335      C1340   1.420       .  A
C1336      C1337   1.408       .  A
C1336      C1341   1.447       .  S
C1337      C1338   1.395       .  A
C1337      C1344   1.439       .  S
C1338      C1339   1.402       .  A
C1339      C1340   1.404       .  A
C1339      C1342   1.444       .  S
C1340      C1343   1.453       .  S
C1341      N1348   1.157       .  T
C1342      N1347   1.155       .  T
C1343      N1345   1.157       .  T
C1344      N1856   1.156       .  T
N1346      C1854   1.156       .  T
C1349      C1350   1.418       .  A
C1349      C1354   1.420       .  A
C1350      C1351   1.404       .  A
C1350      C1355   1.453       .  S
C1351      C1352   1.421       .  A
C1351      C1358   1.457       .  S
C1352      C1353   1.409       .  A
C1353      C1354   1.409       .  A
C1353      C1356   1.450       .  S
C1354      C1357   1.449       .  S
C1355      N1362   1.158       .  T
C1356      N1361   1.158       .  T
C1357      N1359   1.156       .  T
C1358      N1870   1.157       .  T
N1360      C1868   1.158   1_554  T
C1363      C1364   1.428       .  A
C1363      C1368   1.406       .  A
C1364      C1365   1.409       .  A
C1364      C1369   1.451       .  S
C1365      C1366   1.404       .  A
C1365      C1372   1.453       .  S
C1366      C1367   1.430       .  A
C1367      C1368   1.404       .  A
C1367      C1370   1.452       .  S
C1368      C1371   1.455       .  S
C1369      N1376   1.156       .  T
C1370      N1375   1.158       .  T
C1371      N1373   1.158       .  T
C1372      N1374   1.157       .  T
C1377      C1378   1.403       .  A
C1377      C1382   1.439       .  A
C1378      C1379   1.418       .  A
C1378      C1383   1.451       .  S
C1379      C1380   1.437       .  A
C1379      C1386   1.448       .  S
C1380      C1381   1.400       .  A
C1381      C1382   1.410       .  A
C1381      C1384   1.454       .  S
C1382      C1385   1.454       .  S
C1383      N1390   1.158       .  T
C1384      N1389   1.157       .  T
C1385      N1387   1.158       .  T
C1386      N1388   1.157       .  T
C1391      C1392   1.429       .  A
C1391      C1396   1.418       .  A
C1392      C1393   1.411       .  A
C1392      C1397   1.447       .  S
C1393      C1394   1.397       .  A
C1393      C1400   1.444       .  S
C1394      C1395   1.405       .  A
C1395      C1396   1.434       .  A
C1395      C1398   1.440       .  S
C1396      C1399   1.440       .  S
C1397      N1404   1.155       .  T
C1398      N1403   1.157       .  T
C1399      N1401   1.155       .  T
C1400      N1402   1.155       .  T
C1405      C1406   1.398       .  A
C1405      C1410   1.420       .  A
C1406      C1407   1.394       .  A
C1406      C1411   1.454       .  S
C1407      C1408   1.430       .  A
C1407      C1414   1.445       .  S
C1408      C1409   1.415       .  A
C1409      C1410   1.426       .  A
C1409      C1412   1.445       .  S
C1410      C1413   1.448       .  S
C1411      N1418   1.156       .  T
C1412      N1417   1.157       .  T
C1413      N1415   1.158       .  T
C1414      N1416   1.155       .  T
C1419      C1420   1.410       .  A
C1419      C1424   1.438       .  A
C1420      C1421   1.410       .  A
C1420      C1425   1.453       .  S
C1421      C1422   1.421       .  A
C1421      C1428   1.440       .  S
C1422      C1423   1.406       .  A
C1423      C1424   1.412       .  A
C1423      C1426   1.455       .  S
C1424      C1427   1.451       .  S
C1425      N1432   1.157       .  T
C1426      N1431   1.157       .  T
C1427      N1429   1.157       .  T
C1428      N1430   1.154       .  T
C1433      C1434   1.411       .  A
C1433      C1438   1.433       .  A
C1434      C1435   1.417       .  A
C1434      C1439   1.451       .  S
C1435      C1436   1.435       .  A
C1435      C1442   1.452       .  S
C1436      C1437   1.416       .  A
C1437      C1438   1.427       .  A
C1437      C1440   1.450       .  S
C1438      C1441   1.453       .  S
C1439      N1446   1.158       .  T
C1440      N1445   1.158       .  T
C1441      N1443   1.157       .  T
C1442      N1444   1.157       .  T
C1447      C1448   1.402       .  A
C1447      C1452   1.443       .  A
C1448      C1449   1.407       .  A
C1448      C1453   1.451       .  S
C1449      C1450   1.429       .  A
C1449      C1456   1.452       .  S
C1450      C1451   1.400       .  A
C1451      C1452   1.413       .  A
C1451      C1454   1.451       .  S
C1452      C1455   1.450       .  S
C1453      N1460   1.157       .  T
C1454      N1459   1.158       .  T
C1455      N1457   1.156       .  T
C1456      N1458   1.157       .  T
C1461      C1462   1.414       .  A
C1461      C1466   1.412       .  A
C1462      C1463   1.398       .  A
C1462      C1467   1.442       .  S
C1463      C1464   1.397       .  A
C1463      C1470   1.446       .  S
C1464      C1465   1.405       .  A
C1465      C1466   1.426       .  A
C1465      C1468   1.437       .  S
C1466      C1469   1.444       .  S
C1467      N1474   1.152       .  T
C1468      N1473   1.156       .  T
C1469      N1471   1.157       .  T
C1470      N1472   1.155       .  T
C1475      C1476   1.406       .  A
C1475      C1480   1.397       .  A
C1476      C1477   1.415       .  A
C1476      C1481   1.428       .  S
C1477      C1478   1.404       .  A
C1477      C1484   1.444       .  S
C1478      C1479   1.428       .  A
C1479      C1480   1.406       .  A
C1479      C1482   1.453       .  S
C1480      C1483   1.447       .  S
C1481      N1488   1.153       .  T
C1482      N1487   1.157       .  T
C1483      N1485   1.156       .  T
C1484      N1486   1.157       .  T
C1489      C1490   1.437       .  A
C1489      C1494   1.397       .  A
C1490      C1491   1.420       .  A
C1490      C1495   1.447       .  S
C1491      C1492   1.405       .  A
C1491      C1498   1.448       .  S
C1492      C1493   1.419       .  A
C1493      C1494   1.376       .  A
C1493      C1496   1.449       .  S
C1494      C1497   1.452       .  S
C1495      N3542   1.157       .  T
C1496      N1501   1.154       .  T
C1497      N1499   1.156       .  T
C1498      N1500   1.158       .  T
N1502      C3535   1.157       .  T
C1503      C1504   1.425       .  A
C1503      C1508   1.403       .  A
C1504      C1505   1.411       .  A
C1504      C1509   1.452       .  S
C1505      C1506   1.411       .  A
C1505      C1512   1.450       .  S
C1506      C1507   1.441       .  A
C1507      C1508   1.404       .  A
C1507      C1510   1.456       .  S
C1508      C1511   1.454       .  S
C1509      N1516   1.157       .  T
C1510      N3555   1.158       .  T
C1511      N1513   1.157       .  T
C1512      N1514   1.157       .  T
N1515      C3550   1.159       .  T
C1517      C1518   1.434       .  A
C1517      C1522   1.413       .  A
C1518      C1519   1.410       .  A
C1518      C1523   1.451       .  S
C1519      C1520   1.418       .  A
C1519      C1526   1.456       .  S
C1520      C1521   1.430       .  A
C1521      C1522   1.428       .  A
C1521      C1524   1.448       .  S
C1522      C1525   1.448       .  S
C1523      N1530   1.157       .  T
C1524      N1529   1.157   1_455  T
C1525      N1527   1.157       .  T
C1526      N1528   1.158       .  T
O1531      C1539   1.273       .  A
O1531     Co1551   1.958       .  S
O1532      C1540   1.286       .  A
O1532     Co1552   2.010       .  S
O1533      C1541   1.262       .  A
O1533     Co1553   1.944       .  S
O1534      C1542   1.289       .  A
O1534     Co1554   2.111       .  S
O1535      C1541   1.283       .  A
O1536      C1542   1.284       .  A
O1537      C1540   1.281       .  A
O1537     Co1554   2.010       .  S
O1538      C1539   1.279       .  A
O1538     Co1553   2.024       .  S
C1539      C2027   1.495       .  S
C1540      C1985   1.494       .  S
C1541      C2002   1.502       .  S
C1542      C2013   1.506       .  S
O1543      C1556   1.284       .  A
O1544      C1557   1.263       .  A
O1545      C1558   1.278       .  A
O1545     Co1553   2.001       .  S
O1546      C1559   1.293       .  A
O1546     Co1554   2.041       .  S
O1547      C1559   1.267       .  A
O1547     Co1552   1.989       .  S
O1548      C1558   1.276       .  A
O1548     Co1551   2.000       .  S
O1549      C1556   1.285       .  A
O1549     Co1554   1.943       .  S
O1550      C1557   1.287       .  A
O1550     Co1553   2.014       .  S
Co1551     O1555   1.951       .  S
Co1553     O1555   2.018       .  S
C1556      C1943   1.541       .  S
C1557      C1960   1.508       .  S
C1558      C1971   1.479       .  S
C1559      C1932   1.520       .  S
O1560      C1568   1.280       .  A
O1560     Co1580   2.044       .  S
O1561      C1569   1.255       .  A
O1561     Co1581   1.973       .  S
O1562      C1570   1.278       .  A
O1563      C1571   1.295       .  A
O1564      C1570   1.277       .  A
O1564     Co1581   2.037       .  S
O1565      C1571   1.263       .  A
O1565     Co1580   1.973       .  S
O1566      C1569   1.281       .  A
O1566     Co1583   2.019   1_556  S
O1567      C1568   1.260       .  A
O1567     Co1582   1.974       .  S
C1568      C1915   1.495       .  S
C1569      C1876   1.496       .  S
C1570      C1904   1.504       .  S
C1571      C1890   1.497       .  S
O1572      C1585   1.298       .  A
O1572     Co1580   2.081       .  S
O1573      C1586   1.270       .  A
O1573     Co1581   1.987       .  S
O1574      C1587   1.286       .  A
O1574     Co1582   2.057       .  S
O1575      C1588   1.284       .  A
O1575     Co1583   2.036   1_556  S
O1576      C1588   1.273       .  A
O1576     Co1581   1.973       .  S
O1577      C1587   1.282       .  A
O1577     Co1580   1.998       .  S
O1578      C1585   1.255       .  A
O1579      C1586   1.254       .  A
Co1580     O1584   2.105       .  S
Co1582     O1584   2.109       .  S
C1585      C1817   1.546       .  S
C1586      C1862   1.483       .  S
C1587      C1834   1.511       .  S
C1588      C1848   1.473       .  S
O1589      C1597   1.274       .  A
O1589     Co1609   2.015       .  S
O1590      C1598   1.279       .  A
O1590     Co1610   1.895       .  S
O1591      C1599   1.251       .  A
O1592      C1600   1.267       .  A
O1592     Co1612   2.009       .  S
O1593      C1599   1.290       .  A
O1593     Co1610   2.077       .  S
O1594      C1600   1.278       .  A
O1594     Co1609   1.994       .  S
O1595      C1598   1.305       .  A
O1596      C1597   1.277       .  A
O1596     Co1611   2.036       .  S
C1597      C1806   1.511       .  S
C1598      C1761   1.473       .  S
C1599      C1778   1.530       .  S
C1600      C1792   1.501       .  S
O1601      C1614   1.263       .  A
O1601     Co1609   1.990       .  S
O1602      C1615   1.282       .  A
O1602     Co1610   2.007       .  S
O1603      C1616   1.279       .  A
O1603     Co1611   2.006       .  S
O1604      C1617   1.280       .  A
O1605      C1617   1.289       .  A
O1605     Co1610   2.121       .  S
O1606      C1616   1.274       .  A
O1606     Co1609   1.992       .  S
O1607      C1614   1.291       .  A
O1607     Co1612   2.046       .  S
O1608      C1615   1.292       .  A
Co1609     O1613   2.071       .  S
Co1611     O1613   2.095       .  S
Co1612     O1613   2.133       .  S
C1614      C1831   1.526       .  S
C1615      C1957   1.507       .  S
C1616      C1974   1.485       .  S
C1617      C1820   1.544       .  S
O1618      C1626   1.267       .  A
O1618     Co1638   1.980       .  S
O1619      C1627   1.272       .  A
O1620      C1628   1.281       .  A
O1620     Co1640   1.967       .  S
O1621      C1629   1.281       .  A
O1621     Co1641   1.983       .  S
O1622      C1628   1.313       .  A
O1622     Co1639   2.113       .  S
O1623      C1629   1.272       .  A
O1624      C1627   1.292       .  A
O1624     Co1641   2.024       .  S
O1625      C1626   1.279       .  A
O1625     Co1640   1.988       .  S
C1626      C1747   1.505       .  S
C1627      C1705   1.492       .  S
C1628      C1733   1.525       .  S
C1629      C1722   1.495       .  S
O1630      C1643   1.297       .  A
O1631      C1644   1.278       .  A
O1631     Co1639   2.024       .  S
O1632      C1645   1.265       .  A
O1632     Co1640   1.972       .  S
O1633      C1646   1.272       .  A
O1633     Co1641   1.953       .  S
O1634      C1646   1.301       .  A
O1635      C1645   1.299       .  A
O1635     Co1638   2.054       .  S
O1636      C1643   1.280       .  A
O1636     Co1641   2.008       .  S
O1637      C1644   1.267       .  A
O1637     Co1640   1.964       .  S
Co1638     O1642   2.032       .  S
Co1639     O1642   2.031       .  S
Co1640     O1642   1.914       .  S
C1643      C1929   1.527       .  S
C1644      C1859   1.499       .  S
C1645      C1946   1.541       .  S
C1646      C1845   1.491       .  S
O1647      C1655   1.280       .  A
O1647     Co1667   2.037       .  S
O1648      C1656   1.294       .  A
O1648     Co1668   2.037       .  S
O1649      C1657   1.259       .  A
O1649     Co3709   1.963       .  S
O1650      C1658   1.235       .  A
O1650     Co3710   1.914   1_455  S
O1651      C1657   1.294       .  A
O1651     Co1668   2.053       .  S
O1652      C1658   1.278       .  A
O1652     Co1667   2.052       .  S
O1653      C1656   1.281       .  A
O1653     Co1670   2.016       .  S
O1654      C1655   1.266       .  A
O1654     Co1669   1.972   1_455  S
C1655      C2030   1.499       .  S
C1656      C1901   1.523       .  S
C1657      C1918   1.516       .  S
C1658      C2016   1.487       .  S
O1659      C1672   1.295       .  A
O1659     Co1667   2.029       .  S
O1660      C1673   1.273       .  A
O1660     Co1668   2.015       .  S
O1661      C1674   1.294       .  A
O1661     Co1669   2.035   1_455  S
O1662      C1675   1.285       .  A
O1662     Co1670   2.013       .  S
O1663      C1675   1.269       .  A
O1663     Co1668   1.983       .  S
O1664      C1674   1.315       .  A
O1664     Co1667   2.116       .  S
O1665      C1672   1.308       .  A
O1665     Co3710   2.022   1_455  S
O1666      C1673   1.290       .  A
O1666     Co3709   2.001       .  S
Co1667     O3711   2.019   1_455  S
Co1668     O1671   2.063       .  S
Co1669     O3689   1.968       .  S
Co1669     O3706   2.009       .  S
Co1669     O3711   1.970       .  S
Co1670     O3690   1.916       .  S
Co1670     O3705   2.019       .  S
Co1670     O1671   2.057       .  S
O1671     Co3709   1.964       .  S
O1671     Co3707   2.024       .  S
C1672      C1750   1.510       .  S
C1673      C1789   1.509       .  S
C1674      C1803   1.526       .  S
C1675      C1736   1.508       .  S
O1676      C1684   1.279       .  A
O1676     Co1696   2.012   1_455  S
O1677      C1685   1.266       .  A
O1677     Co3737   1.972       .  S
O1678      C1686   1.287       .  A
O1678     Co1698   2.004       .  S
O1679      C1687   1.293       .  A
O1679     Co1699   2.034       .  S
O1680      C1686   1.272       .  A
O1680     Co1697   1.996       .  S
O1681      C1687   1.262       .  A
O1681     Co3736   1.950       .  S
O1682      C1685   1.283       .  A
O1682     Co1699   2.007       .  S
O1683      C1684   1.291       .  A
O1683     Co1698   2.004       .  S
C1684      C1999   1.492       .  S
C1685      C1873   1.496       .  S
C1686      C1988   1.508       .  S
C1687      C1887   1.511       .  S
O1688      C1701   1.295       .  A
O1688     Co3736   2.009       .  S
O1689      C1702   1.289       .  A
O1689     Co1697   2.007       .  S
O1690      C1703   1.280       .  A
O1690     Co1698   2.017       .  S
O1691      C1704   1.276       .  A
O1691     Co1699   2.003       .  S
O1692      C1704   1.284       .  A
O1692     Co3737   2.001       .  S
O1693      C1703   1.301       .  A
O1693     Co1696   2.054   1_455  S
O1694      C1701   1.264       .  A
O1694     Co1699   1.974       .  S
O1695      C1702   1.265       .  A
O1695     Co1698   1.961       .  S
Co1696     O3721   1.955       .  S
Co1696     O3728   2.011       .  S
Co1696     O1700   1.950       .  S
Co1697     O3717   1.970   1_455  S
Co1697     O3732   2.010   1_455  S
Co1697     O1700   2.029   1_455  S
Co1698     O1700   1.936   1_455  S
Co1699     O3740   2.027       .  S
O1700     Co3739   2.025       .  S
C1701      C1764   1.501       .  S
C1702      C1719   1.504       .  S
C1703      C1775   1.534       .  S
C1704      C1708   1.480       .  S
C1705      C1706   1.405       .  A
C1705      C1710   1.419       .  A
C1706      C1707   1.416       .  A
C1706      C1711   1.431       .  S
C1707      C1708   1.392       .  A
C1707      C1714   1.434       .  S
C1708      C1709   1.404       .  A
C1709      C1710   1.406       .  A
C1709      C1712   1.441       .  S
C1710      C1713   1.452       .  S
C1711      N1718   1.154       .  T
C1712      N1717   1.153       .  T
C1713      N1715   1.157       .  T
C1714      N1716   1.156       .  T
C1719      C1720   1.404       .  A
C1719      C1724   1.442       .  A
C1720      C1721   1.404       .  A
C1720      C1725   1.452       .  S
C1721      C1722   1.427       .  A
C1721      C1728   1.445       .  S
C1722      C1723   1.406       .  A
C1723      C1724   1.412       .  A
C1723      C1726   1.455       .  S
C1724      C1727   1.455       .  S
C1725      N1732   1.156       .  T
C1726      N1731   1.157       .  T
C1727      N1729   1.159       .  T
C1733      C1734   1.429       .  A
C1733      C1738   1.424       .  A
C1734      C1735   1.425       .  A
C1734      C1739   1.448       .  S
C1735      C1736   1.415       .  A
C1735      C1742   1.452       .  S
C1736      C1737   1.423       .  A
C1737      C1738   1.409       .  A
C1737      C1740   1.452       .  S
C1738      C1741   1.455       .  S
C1739      N1746   1.157       .  T
C1740      N1745   1.156       .  T
C1741      N1743   1.158       .  T
C1742      N1744   1.158       .  T
C1747      C1748   1.404       .  A
C1747      C1752   1.428       .  A
C1748      C1749   1.413       .  A
C1748      C1753   1.452       .  S
C1749      C1750   1.442       .  A
C1749      C1756   1.448       .  S
C1750      C1751   1.406       .  A
C1751      C1752   1.409       .  A
C1751      C1754   1.450       .  S
C1752      C1755   1.453       .  S
C1753      N1760   1.157       .  T
C1754      N1759   1.157       .  T
C1755      N1757   1.158       .  T
C1756      N1758   1.157       .  T
C1761      C1762   1.397       .  A
C1761      C1766   1.390       .  A
C1762      C1763   1.415       .  A
C1762      C1767   1.448       .  S
C1763      C1764   1.437       .  A
C1763      C1770   1.445       .  S
C1764      C1765   1.394       .  A
C1765      C1766   1.401       .  A
C1765      C1768   1.428       .  S
C1766      C1769   1.432       .  S
C1767      N1774   1.158       .  T
C1770      N1772   1.155       .  T
C1775      C1776   1.439       .  A
C1775      C1780   1.410       .  A
C1776      C1777   1.426       .  A
C1776      C1781   1.447       .  S
C1777      C1778   1.409       .  A
C1777      C1784   1.452       .  S
C1778      C1779   1.440       .  A
C1779      C1780   1.420       .  A
C1779      C1782   1.453       .  S
C1780      C1783   1.452       .  S
C1781      N1788   1.156       .  T
C1782      N1787   1.157   1_565  T
C1783      N1785   1.158       .  T
C1784      N1786   1.158       .  T
C1789      C1790   1.393       .  A
C1789      C1794   1.433       .  A
C1790      C1791   1.392       .  A
C1790      C1795   1.441       .  S
C1791      C1792   1.404       .  A
C1791      C1798   1.431       .  S
C1792      C1793   1.416       .  A
C1793      C1794   1.430       .  A
C1793      C1796   1.444       .  S
C1794      C1797   1.449       .  S
C1796      N1801   1.157       .  T
C1797      N1799   1.157       .  T
C1803      C1804   1.425       .  A
C1803      C1808   1.422       .  A
C1804      C1805   1.416       .  A
C1804      C1809   1.443       .  S
C1805      C1806   1.400       .  A
C1805      C1812   1.447       .  S
C1806      C1807   1.410       .  A
C1807      C1808   1.429       .  A
C1807      C1810   1.445       .  S
C1808      C1811   1.446       .  S
C1809      N1816   1.154       .  T
C1811      N1813   1.157       .  T
C1812      N1814   1.155       .  T
C1817      C1818   1.441       .  A
C1817      C1822   1.408       .  A
C1818      C1819   1.431       .  A
C1818      C1823   1.451       .  S
C1819      C1820   1.413       .  A
C1819      C1826   1.450       .  S
C1820      C1821   1.420       .  A
C1821      C1822   1.428       .  A
C1821      C1824   1.436       .  S
C1822      C1825   1.443       .  S
C1823      N1830   1.158       .  T
C1824      N1829   1.157       .  T
C1825      N1827   1.157       .  T
C1826      N1828   1.157       .  T
C1831      C1832   1.437       .  A
C1831      C1836   1.410       .  A
C1832      C1833   1.417       .  A
C1832      C1837   1.442       .  S
C1833      C1834   1.402       .  A
C1833      C1840   1.451       .  S
C1834      C1835   1.413       .  A
C1835      C1836   1.416       .  A
C1835      C1838   1.439       .  S
C1836      C1839   1.447       .  S
C1837      N1844   1.154       .  T
C1839      N1841   1.157       .  T
C1840      N1842   1.157       .  T
C1845      C1846   1.408       .  A
C1845      C1850   1.433       .  A
C1846      C1847   1.413       .  A
C1846      C1851   1.444       .  S
C1847      C1848   1.399       .  A
C1847      C1854   1.439       .  S
C1848      C1849   1.397       .  A
C1849      C1850   1.402       .  A
C1849      C1852   1.449       .  S
C1850      C1853   1.455       .  S
C1851      N1858   1.157       .  T
C1852      N1857   1.156       .  T
C1853      N1855   1.157       .  T
C1859      C1860   1.418       .  A
C1859      C1864   1.420       .  A
C1860      C1861   1.404       .  A
C1860      C1865   1.454       .  S
C1861      C1862   1.423       .  A
C1861      C1868   1.457       .  S
C1862      C1863   1.409       .  A
C1863      C1864   1.411       .  A
C1863      C1866   1.451       .  S
C1864      C1867   1.448       .  S
C1865      N1872   1.158       .  T
C1866      N1871   1.157       .  T
C1867      N1869   1.157       .  T
C1873      C1874   1.428       .  A
C1873      C1878   1.408       .  A
C1874      C1875   1.413       .  A
C1874      C1879   1.451       .  S
C1875      C1876   1.406       .  A
C1875      C1882   1.452       .  S
C1876      C1877   1.430       .  A
C1877      C1878   1.409       .  A
C1877      C1880   1.452       .  S
C1878      C1881   1.454       .  S
C1879      N1886   1.156       .  T
C1880      N1885   1.158       .  T
C1881      N1883   1.158       .  T
C1882      N1884   1.157       .  T
C1887      C1888   1.403       .  A
C1887      C1892   1.439       .  A
C1888      C1889   1.417       .  A
C1888      C1893   1.452       .  S
C1889      C1890   1.437       .  A
C1889      C1896   1.449       .  S
C1890      C1891   1.399       .  A
C1891      C1892   1.406       .  A
C1891      C1894   1.454       .  S
C1892      C1895   1.455       .  S
C1893      N1900   1.157       .  T
C1894      N1899   1.157       .  T
C1895      N1897   1.158       .  T
C1896      N1898   1.158       .  T
C1901      C1902   1.423       .  A
C1901      C1906   1.418       .  A
C1902      C1903   1.408       .  A
C1902      C1907   1.447       .  S
C1903      C1904   1.398       .  A
C1903      C1910   1.442       .  S
C1904      C1905   1.403       .  A
C1905      C1906   1.433       .  A
C1905      C1908   1.441       .  S
C1906      C1909   1.439       .  S
C1907      N1914   1.155       .  T
C1908      N1913   1.157       .  T
C1909      N1911   1.155       .  T
C1910      N1912   1.155       .  T
C1915      C1916   1.398       .  A
C1915      C1920   1.423       .  A
C1916      C1917   1.395       .  A
C1916      C1921   1.454       .  S
C1917      C1918   1.435       .  A
C1917      C1924   1.448       .  S
C1918      C1919   1.414       .  A
C1919      C1920   1.430       .  A
C1919      C1922   1.444       .  S
C1920      C1923   1.447       .  S
C1921      N1928   1.157       .  T
C1922      N1927   1.157       .  T
C1923      N1925   1.157       .  T
C1924      N1926   1.156       .  T
C1929      C1930   1.409       .  A
C1929      C1934   1.439       .  A
C1930      C1931   1.416       .  A
C1930      C1935   1.454       .  S
C1931      C1932   1.430       .  A
C1931      C1938   1.440       .  S
C1932      C1933   1.407       .  A
C1933      C1934   1.425       .  A
C1933      C1936   1.450       .  S
C1934      C1937   1.450       .  S
C1935      N1942   1.158       .  T
C1936      N1941   1.157       .  T
C1937      N1939   1.157       .  T
C1938      N1940   1.154       .  T
C1943      C1944   1.408       .  A
C1943      C1948   1.445       .  A
C1944      C1945   1.417       .  A
C1944      C1949   1.449       .  S
C1945      C1946   1.439       .  A
C1945      C1952   1.452       .  S
C1946      C1947   1.411       .  A
C1947      C1948   1.432       .  A
C1947      C1950   1.453       .  S
C1948      C1951   1.450       .  S
C1949      N1956   1.157       .  T
C1950      N1955   1.158       .  T
C1951      N1953   1.157   1_556  T
C1952      N1954   1.157       .  T
C1957      C1958   1.405       .  A
C1957      C1962   1.446       .  A
C1958      C1959   1.411       .  A
C1958      C1963   1.450       .  S
C1959      C1960   1.427       .  A
C1959      C1966   1.450       .  S
C1960      C1961   1.400       .  A
C1961      C1962   1.413       .  A
C1961      C1964   1.452       .  S
C1962      C1965   1.450       .  S
C1963      N1970   1.157       .  T
C1964      N1969   1.157       .  T
C1965      N1967   1.156       .  T
C1966      N1968   1.157       .  T
C1971      C1972   1.399       .  A
C1971      C1976   1.408       .  A
C1972      C1973   1.394       .  A
C1972      C1977   1.440       .  S
C1973      C1974   1.405       .  A
C1973      C1980   1.448       .  S
C1974      C1975   1.412       .  A
C1975      C1976   1.426       .  A
C1975      C1978   1.441       .  S
C1976      C1979   1.443       .  S
C1977      N1984   1.154       .  T
C1978      N1983   1.157       .  T
C1979      N1981   1.157       .  T
C1980      N1982   1.157       .  T
C1985      C1986   1.405       .  A
C1985      C1990   1.399       .  A
C1986      C1987   1.415       .  A
C1986      C1991   1.425       .  S
C1987      C1988   1.405       .  A
C1987      C1994   1.446       .  S
C1988      C1989   1.430       .  A
C1989      C1990   1.410       .  A
C1989      C1992   1.454       .  S
C1990      C1993   1.447       .  S
C1991      N1998   1.151       .  T
C1992      N1997   1.156       .  T
C1993      N1995   1.156       .  T
C1994      N1996   1.158       .  T
C1999      C2000   1.439       .  A
C1999      C2004   1.402       .  A
C2000      C2001   1.428       .  A
C2000      C2005   1.447       .  S
C2001      C2002   1.409       .  A
C2001      C2008   1.447       .  S
C2002      C2003   1.416       .  A
C2003      C2004   1.379       .  A
C2003      C2006   1.450       .  S
C2004      C2007   1.451       .  S
C2005      N4052   1.157       .  T
C2006      N2011   1.154       .  T
C2007      N2009   1.157       .  T
C2008      N2010   1.157       .  T
N2012      C4045   1.158       .  T
C2013      C2014   1.441       .  A
C2013      C2018   1.410       .  A
C2014      C2015   1.412       .  A
C2014      C2019   1.448       .  S
C2015      C2016   1.398       .  A
C2015      C2022   1.455       .  S
C2016      C2017   1.429       .  A
C2017      C2018   1.414       .  A
C2017      C2020   1.452       .  S
C2018      C2021   1.450       .  S
C2019      N2026   1.157       .  T
C2020      N4065   1.157   1_455  T
C2021      N2023   1.157       .  T
C2022      N2024   1.157       .  T
N2025      C4060   1.157       .  T
C2027      C2028   1.419       .  A
C2027      C2032   1.414       .  A
C2028      C2029   1.399       .  A
C2028      C2033   1.446       .  S
C2029      C2030   1.415       .  A
C2029      C2036   1.457       .  S
C2030      C2031   1.425       .  A
C2031      C2032   1.416       .  A
C2031      C2034   1.452       .  S
C2032      C2035   1.452       .  S
C2033      N2040   1.155       .  T
C2034      N2039   1.158       .  T
C2035      N2037   1.157       .  T
C2036      N2038   1.157       .  T
O2041      C2049   1.289       .  A
O2041     Co2061   2.044       .  S
O2042      C2050   1.273       .  A
O2042     Co2062   1.981       .  S
O2043      C2051   1.265       .  A
O2043     Co2063   1.949       .  S
O2044      C2052   1.270       .  A
O2044     Co2064   1.977       .  S
O2045      C2051   1.280       .  A
O2045     Co2572   1.999   1_554  S
O2046      C2052   1.287       .  A
O2046     Co2571   2.012       .  S
O2047      C2050   1.279       .  A
O2047     Co2064   2.014       .  S
O2048      C2049   1.262       .  A
O2048     Co2063   1.972       .  S
C2049      C2537   1.519       .  S
C2050      C2495   1.472       .  S
C2051      C2512   1.490       .  S
C2052      C2523   1.494       .  S
O2053      C2066   1.278       .  A
O2053     Co2571   2.006       .  S
O2054      C2067   1.267       .  A
O2054     Co2572   1.973   1_554  S
O2055      C2068   1.292       .  A
O2055     Co2063   2.035       .  S
O2056      C2069   1.278       .  A
O2056     Co2064   1.961       .  S
O2057      C2069   1.280       .  A
O2057     Co2062   2.031       .  S
O2058      C2068   1.273       .  A
O2058     Co2061   1.974       .  S
O2059      C2066   1.296       .  A
O2059     Co2064   2.053       .  S
O2060      C2067   1.291       .  A
O2060     Co2063   2.010       .  S
Co2061     O2556   1.910   1_554  S
Co2061     O2563   2.131   1_554  S
Co2061     O2065   1.962       .  S
Co2062     O2555   2.015       .  S
Co2062     O2564   1.973       .  S
Co2062     O2575   2.052       .  S
Co2063     O2065   2.011       .  S
Co2064     O2575   1.954       .  S
O2065     Co2572   2.030   1_554  S
O2065     Co2574   1.958   1_554  S
C2066      C2453   1.526       .  S
C2067      C2470   1.502       .  S
C2068      C2481   1.495       .  S
C2069      C2442   1.500       .  S
O2070      C2078   1.278       .  A
O2070     Co2090   2.035       .  S
O2071      C2079   1.250       .  A
O2071     Co2091   1.964       .  S
O2072      C2080   1.278       .  A
O2072     Co2602   2.006       .  S
O2073      C2081   1.293       .  A
O2073     Co2603   2.025   1_554  S
O2074      C2080   1.279       .  A
O2074     Co2091   2.042       .  S
O2075      C2081   1.264       .  A
O2075     Co2090   1.979       .  S
O2076      C2079   1.283       .  A
O2076     Co2093   2.022       .  S
O2077      C2078   1.261       .  A
O2077     Co2092   1.975       .  S
C2078      C2425   1.489       .  S
C2079      C2386   1.492       .  S
C2080      C2414   1.501       .  S
C2081      C2400   1.499       .  S
O2082      C2095   1.295       .  A
O2082     Co2090   2.062       .  S
O2083      C2096   1.266       .  A
O2083     Co2091   1.980       .  S
O2084      C2097   1.283       .  A
O2084     Co2092   2.047       .  S
O2085      C2098   1.287       .  A
O2085     Co2093   2.038       .  S
O2086      C2098   1.270       .  A
O2086     Co2091   1.960       .  S
O2087      C2097   1.281       .  A
O2087     Co2090   2.005       .  S
O2088      C2095   1.258       .  A
O2088     Co2603   1.984   1_554  S
O2089      C2096   1.254       .  A
O2089     Co2602   1.976       .  S
Co2090     O2094   2.108   1_554  S
Co2091     O2604   2.097       .  S
Co2092     O2582   2.012   1_554  S
Co2092     O2599   1.971   1_554  S
Co2092     O2094   2.106   1_554  S
Co2093     O2583   2.040       .  S
Co2093     O2598   1.979       .  S
Co2093     O2604   2.087       .  S
O2094     Co2601   2.101       .  S
O2094     Co2603   2.095       .  S
C2095      C2327   1.539       .  S
C2096      C2372   1.481       .  S
C2097      C2344   1.512       .  S
C2098      C2358   1.463       .  S
O2099      C2107   1.266       .  A
O2099     Co2119   1.996       .  S
O2100      C2108   1.274       .  A
O2100     Co2120   1.864       .  S
O2101      C2109   1.254       .  A
O2101     Co3141   1.958       .  S
O2102      C2110   1.270       .  A
O2102     Co2122   2.014       .  S
O2103      C2109   1.286       .  A
O2103     Co2120   2.071       .  S
O2104      C2110   1.279       .  A
O2104     Co2119   1.995       .  S
O2105      C2108   1.310       .  A
O2105     Co3142   2.116       .  S
O2106      C2107   1.269       .  A
O2106     Co2121   2.010       .  S
C2107      C2316   1.488       .  S
C2108      C2271   1.448       .  S
C2109      C2288   1.531       .  S
C2110      C2302   1.500       .  S
O2111      C2124   1.256       .  A
O2111     Co2119   1.979       .  S
O2112      C2125   1.276       .  A
O2112     Co2120   1.995       .  S
O2113      C2126   1.281       .  A
O2113     Co2121   1.998       .  S
O2114      C2127   1.277       .  A
O2114     Co3142   2.013       .  S
O2115      C2127   1.287       .  A
O2115     Co2120   2.126       .  S
O2116      C2126   1.278       .  A
O2116     Co2119   2.013       .  S
O2117      C2124   1.291       .  A
O2117     Co2122   2.062       .  S
O2118      C2125   1.289       .  A
O2118     Co3141   2.003       .  S
Co2119     O2123   2.069       .  S
Co2120     O3143   1.931       .  S
Co2121     O3121   1.948   1_545  S
Co2121     O3138   1.999   1_545  S
Co2121     O2123   2.097       .  S
Co2122     O3125   2.105   1_545  S
Co2122     O3134   2.017   1_545  S
Co2122     O2123   2.125       .  S
O2123     Co3140   1.948   1_545  S
C2124      C2341   1.535       .  S
C2125      C2467   1.496       .  S
C2126      C2484   1.486       .  S
C2127      C2330   1.538       .  S
O2128      C2136   1.271       .  A
O2128     Co2148   1.997   1_545  S
O2129      C2137   1.306       .  A
O2129     Co3169   2.075       .  S
O2130      C2138   1.283       .  A
O2130     Co2150   1.979       .  S
O2131      C2139   1.288       .  A
O2131     Co2151   2.007       .  S
O2132      C2138   1.312       .  A
O2132     Co2149   2.104   1_545  S
O2133      C2139   1.277       .  A
O2133     Co3168   2.018       .  S
O2134      C2137   1.298       .  A
O2134     Co2151   2.038       .  S
O2135      C2136   1.279       .  A
O2135     Co2150   1.987       .  S
C2136      C2257   1.513       .  S
C2137      C2215   1.520       .  S
C2138      C2243   1.527       .  S
C2139      C2232   1.519       .  S
O2140      C2153   1.287       .  A
O2140     Co3168   2.005       .  S
O2141      C2154   1.279       .  A
O2141     Co2149   2.031   1_545  S
O2142      C2155   1.270       .  A
O2142     Co2150   1.990       .  S
O2143      C2156   1.263       .  A
O2143     Co2151   1.929       .  S
O2144      C2156   1.281       .  A
O2144     Co3169   2.045       .  S
O2145      C2155   1.292       .  A
O2145     Co2148   2.031   1_545  S
O2146      C2153   1.271       .  A
O2146     Co2151   1.999       .  S
O2147      C2154   1.266       .  A
O2147     Co2150   1.953       .  S
Co2148     O3153   2.010       .  S
Co2148     O3160   2.010       .  S
Co2148     O2152   2.029       .  S
Co2149     O3149   2.070       .  S
Co2149     O3164   2.043       .  S
Co2149     O2152   2.035       .  S
Co2150     O2152   1.914   1_545  S
Co2151     O3172   1.943       .  S
O2152     Co3171   1.932       .  S
C2153      C2439   1.509       .  S
C2154      C2369   1.498       .  S
C2155      C2456   1.534       .  S
C2156      C2355   1.477       .  S
O2157      C2165   1.285       .  A
O2157     Co2177   1.976       .  S
O2158      C2166   1.290       .  A
O2158     Co2178   2.037       .  S
O2159      C2167   1.269       .  A
O2160      C2168   1.261       .  A
O2161      C2167   1.297       .  A
O2161     Co2178   2.049       .  S
O2162      C2168   1.284       .  A
O2162     Co2177   2.001       .  S
O2163      C2166   1.275       .  A
O2163     Co2180   1.994   1_655  S
O2164      C2165   1.314       .  A
O2164     Co2179   2.116       .  S
C2165      C2540   1.525       .  S
C2166      C2411   1.517       .  S
C2167      C2428   1.508       .  S
C2168      C2526   1.498       .  S
O2169      C2182   1.264       .  A
O2169     Co2177   1.977       .  S
O2170      C2183   1.270       .  A
O2170     Co2178   2.000       .  S
O2171      C2184   1.271       .  A
O2171     Co2179   2.026       .  S
O2172      C2185   1.289       .  A
O2172     Co2180   2.017   1_655  S
O2173      C2185   1.276       .  A
O2173     Co2178   1.996       .  S
O2174      C2184   1.269       .  A
O2174     Co2177   1.991       .  S
O2175      C2182   1.301       .  A
O2176      C2183   1.291       .  A
Co2178     O2181   2.036       .  S
Co2180     O2181   2.018   1_455  S
C2182      C2260   1.518       .  S
C2183      C2299   1.510       .  S
C2184      C2313   1.500       .  S
C2185      C2246   1.515       .  S
O2186      C2194   1.263       .  A
O2186     Co2206   1.993       .  S
O2187      C2195   1.255       .  A
O2188      C2196   1.261       .  A
O2188     Co2208   1.991       .  S
O2189      C2197   1.291       .  A
O2189     Co2209   2.041       .  S
O2190      C2196   1.250       .  A
O2190     Co2207   1.965       .  S
O2191      C2197   1.267       .  A
O2192      C2195   1.280       .  A
O2192     Co2209   2.005       .  S
O2193      C2194   1.266       .  A
O2193     Co2208   1.982       .  S
C2194      C2509   1.481       .  S
C2195      C2383   1.511       .  S
C2196      C2498   1.489       .  S
C2197      C2397   1.507       .  S
O2198      C2211   1.339       .  A
O2199      C2212   1.292       .  A
O2199     Co2207   1.977       .  S
O2200      C2213   1.311       .  A
O2200     Co2208   2.096       .  S
O2201      C2214   1.274       .  A
O2201     Co2209   2.012       .  S
O2202      C2214   1.284       .  A
O2203      C2213   1.300       .  A
O2203     Co2206   2.047       .  S
O2204      C2211   1.281       .  A
O2204     Co2209   1.810       .  S
O2205      C2212   1.307       .  A
O2205     Co2208   2.087       .  S
Co2206     O2210   1.988       .  S
Co2207     O2210   2.064       .  S
Co2208     O2210   2.020       .  S
C2211      C2274   1.469       .  S
C2212      C2229   1.521       .  S
C2213      C2285   1.536       .  S
C2214      C2218   1.511       .  S
C2215      C2216   1.403       .  A
C2215      C2220   1.421       .  A
C2216      C2217   1.419       .  A
C2216      C2221   1.428       .  S
C2217      C2218   1.401       .  A
C2217      C2224   1.438       .  S
C2218      C2219   1.414       .  A
C2219      C2220   1.427       .  A
C2219      C2222   1.441       .  S
C2220      C2223   1.450       .  S
C2221      N2228   1.152       .  T
C2222      N2227   1.156       .  T
C2223      N2225   1.157       .  T
C2224      N2226   1.156       .  T
C2229      C2230   1.408       .  A
C2229      C2234   1.436       .  A
C2230      C2231   1.408       .  A
C2230      C2235   1.451       .  S
C2231      C2232   1.428       .  A
C2231      C2238   1.444       .  S
C2232      C2233   1.414       .  A
C2233      C2234   1.426       .  A
C2233      C2236   1.451       .  S
C2234      C2237   1.452       .  S
C2235      N2242   1.156       .  T
C2236      N2241   1.157       .  T
C2237      N2239   1.159       .  T
C2238      N3260   1.156       .  T
N2240      C3258   1.156       .  T
C2243      C2244   1.429       .  A
C2243      C2248   1.423       .  A
C2244      C2245   1.426       .  A
C2244      C2249   1.450       .  S
C2245      C2246   1.417       .  A
C2245      C2252   1.450       .  S
C2246      C2247   1.425       .  A
C2247      C2248   1.409       .  A
C2247      C2250   1.453       .  S
C2248      C2251   1.453       .  S
C2249      N2256   1.155   1_545  T
C2250      N2255   1.154       .  T
C2251      N2253   1.160       .  T
C2252      N2254   1.159       .  T
C2257      C2258   1.406       .  A
C2257      C2262   1.427       .  A
C2258      C2259   1.417       .  A
C2258      C2263   1.453       .  S
C2259      C2260   1.443       .  A
C2259      C2266   1.448       .  S
C2260      C2261   1.409       .  A
C2261      C2262   1.413       .  A
C2261      C2264   1.449       .  S
C2262      C2265   1.453       .  S
C2263      N2270   1.157       .  T
C2264      N2269   1.157       .  T
C2265      N2267   1.158       .  T
C2266      N2268   1.157       .  T
C2271      C2272   1.400       .  A
C2271      C2276   1.387       .  A
C2272      C2273   1.406       .  A
C2272      C2277   1.447       .  S
C2273      C2274   1.426       .  A
C2273      C2280   1.447       .  S
C2274      C2275   1.393       .  A
C2275      C2276   1.388       .  A
C2275      C2278   1.429       .  S
C2276      C2279   1.438       .  S
C2277      N2284   1.157       .  T
C2278      N3303   1.153       .  T
C2279      N3301   1.156       .  T
C2280      N2282   1.156       .  T
N2281      C3299   1.155       .  T
N2283      C3298   1.155       .  T
C2285      C2286   1.436       .  A
C2285      C2290   1.412       .  A
C2286      C2287   1.428       .  A
C2286      C2291   1.447       .  S
C2287      C2288   1.411       .  A
C2287      C2294   1.451       .  S
C2288      C2289   1.436       .  A
C2289      C2290   1.418       .  A
C2289      C2292   1.451       .  S
C2290      C2293   1.452       .  S
C2291      N2298   1.156       .  T
C2292      N2297   1.155       .  T
C2293      N2295   1.158       .  T
C2294      N2296   1.158       .  T
C2299      C2300   1.395       .  A
C2299      C2304   1.436       .  A
C2300      C2301   1.391       .  A
C2300      C2305   1.440       .  S
C2301      C2302   1.404       .  A
C2301      C2308   1.435       .  S
C2302      C2303   1.413       .  A
C2303      C2304   1.430       .  A
C2303      C2306   1.444       .  S
C2304      C2307   1.449       .  S
C2305      N3332   1.158       .  T
C2306      N2311   1.157       .  T
C2307      N2309   1.157       .  T
C2308      N3330   1.151       .  T
N2310      C3328   1.150       .  T
N2312      C3325   1.158       .  T
C2313      C2314   1.416       .  A
C2313      C2318   1.421       .  A
C2314      C2315   1.410       .  A
C2314      C2319   1.446       .  S
C2315      C2316   1.408       .  A
C2315      C2322   1.448       .  S
C2316      C2317   1.406       .  A
C2317      C2318   1.415       .  A
C2317      C2320   1.447       .  S
C2318      C2321   1.450       .  S
C2319      N2326   1.155       .  T
C2320      N3345   1.157   1_545  T
C2321      N2323   1.157       .  T
C2322      N2324   1.156       .  T
N2325      C3340   1.157       .  T
C2327      C2328   1.438       .  A
C2327      C2332   1.406       .  A
C2328      C2329   1.429       .  A
C2328      C2333   1.450       .  S
C2329      C2330   1.415       .  A
C2329      C2336   1.449       .  S
C2330      C2331   1.418       .  A
C2331      C2332   1.422       .  A
C2331      C2334   1.434       .  S
C2332      C2335   1.443       .  S
C2333      N2340   1.157   1_554  T
C2334      N2339   1.156       .  T
C2335      N2337   1.156       .  T
C2336      N2338   1.157       .  T
C2341      C2342   1.442       .  A
C2341      C2346   1.410       .  A
C2342      C2343   1.420       .  A
C2342      C2347   1.444       .  S
C2343      C2344   1.401       .  A
C2343      C2350   1.452       .  S
C2344      C2345   1.410       .  A
C2345      C2346   1.421       .  A
C2345      C2348   1.439   1_554  S
C2346      C2349   1.446       .  S
C2347      N2354   1.155       .  T
C2348      N2863   1.158       .  T
C2349      N2351   1.157       .  T
C2350      N2352   1.157       .  T
N2353      C2858   1.158       .  T
C2355      C2356   1.415       .  A
C2355      C2360   1.420       .  A
C2356      C2357   1.405       .  A
C2356      C2361   1.447       .  S
C2357      C2358   1.392       .  A
C2357      C2364   1.439       .  S
C2358      C2359   1.398       .  A
C2359      C2360   1.400       .  A
C2359      C2362   1.446       .  S
C2360      C2363   1.453       .  S
C2361      N2368   1.157       .  T
C2362      N2367   1.156       .  T
C2363      N2365   1.157       .  T
C2364      N2876   1.156       .  T
N2366      C2874   1.156       .  T
C2369      C2370   1.419       .  A
C2369      C2374   1.420       .  A
C2370      C2371   1.405       .  A
C2370      C2375   1.453       .  S
C2371      C2372   1.420       .  A
C2371      C2378   1.456       .  S
C2372      C2373   1.410       .  A
C2373      C2374   1.409       .  A
C2373      C2376   1.450       .  S
C2374      C2377   1.449       .  S
C2375      N2382   1.158       .  T
C2376      N2381   1.157       .  T
C2377      N2379   1.156       .  T
C2378      N2890   1.157       .  T
N2380      C2888   1.157   1_554  T
C2383      C2384   1.440       .  A
C2383      C2388   1.407       .  A
C2384      C2385   1.408       .  A
C2384      C2389   1.445       .  S
C2385      C2386   1.398       .  A
C2385      C2392   1.458       .  S
C2386      C2387   1.432       .  A
C2387      C2388   1.414       .  A
C2387      C2390   1.451       .  S
C2388      C2391   1.453       .  S
C2389      N2396   1.156   1_655  T
C2390      N2395   1.158       .  T
C2391      N2393   1.157       .  T
C2392      N2394   1.157       .  T
C2397      C2398   1.405       .  A
C2397      C2402   1.430       .  A
C2398      C2399   1.415       .  A
C2398      C2403   1.451       .  S
C2399      C2400   1.433       .  A
C2399      C2406   1.449       .  S
C2400      C2401   1.405       .  A
C2401      C2402   1.410       .  A
C2401      C2404   1.451       .  S
C2402      C2405   1.453       .  S
C2403      N2410   1.157       .  T
C2404      N2409   1.157       .  T
C2405      N2407   1.158       .  T
C2406      N2408   1.158       .  T
C2411      C2412   1.423       .  A
C2411      C2416   1.419       .  A
C2412      C2413   1.402       .  A
C2412      C2417   1.447       .  S
C2413      C2414   1.394       .  A
C2413      C2420   1.444       .  S
C2414      C2415   1.408       .  A
C2415      C2416   1.435       .  A
C2415      C2418   1.441       .  S
C2416      C2419   1.445       .  S
C2417      N2424   1.155       .  T
C2418      N2423   1.157       .  T
C2419      N2421   1.157       .  T
C2420      N2422   1.155       .  T
C2425      C2426   1.399       .  A
C2425      C2430   1.419       .  A
C2426      C2427   1.396       .  A
C2426      C2431   1.453       .  S
C2427      C2428   1.430       .  A
C2427      C2434   1.447       .  S
C2428      C2429   1.414       .  A
C2429      C2430   1.426       .  A
C2429      C2432   1.444       .  S
C2430      C2433   1.446       .  S
C2431      N2438   1.157       .  T
C2432      N2437   1.157       .  T
C2433      N2435   1.157       .  T
C2434      N2436   1.155       .  T
C2439      C2440   1.410       .  A
C2439      C2444   1.436       .  A
C2440      C2441   1.409       .  A
C2440      C2445   1.453       .  S
C2441      C2442   1.421       .  A
C2441      C2448   1.440       .  S
C2442      C2443   1.408       .  A
C2443      C2444   1.412       .  A
C2443      C2446   1.454       .  S
C2444      C2447   1.451       .  S
C2445      N2452   1.158       .  T
C2446      N2451   1.158       .  T
C2447      N2449   1.157       .  T
C2448      N2450   1.153       .  T
C2453      C2454   1.412       .  A
C2453      C2458   1.433       .  A
C2454      C2455   1.417       .  A
C2454      C2459   1.451       .  S
C2455      C2456   1.434       .  A
C2455      C2462   1.452       .  S
C2456      C2457   1.416       .  A
C2457      C2458   1.427       .  A
C2457      C2460   1.450       .  S
C2458      C2461   1.452       .  S
C2459      N2466   1.157       .  T
C2460      N2465   1.157       .  T
C2461      N2463   1.157       .  T
C2462      N2464   1.157       .  T
C2467      C2468   1.399       .  A
C2467      C2472   1.445       .  A
C2468      C2469   1.404       .  A
C2468      C2473   1.451       .  S
C2469      C2470   1.428       .  A
C2469      C2476   1.449       .  S
C2470      C2471   1.400       .  A
C2471      C2472   1.413       .  A
C2471      C2474   1.451       .  S
C2472      C2475   1.449       .  S
C2473      N2480   1.158       .  T
C2474      N2479   1.158       .  T
C2475      N2477   1.156       .  T
C2476      N2478   1.156       .  T
C2481      C2482   1.420       .  A
C2481      C2486   1.413       .  A
C2482      C2483   1.402       .  A
C2482      C2487   1.447       .  S
C2483      C2484   1.398       .  A
C2483      C2490   1.447       .  S
C2484      C2485   1.404       .  A
C2485      C2486   1.425       .  A
C2485      C2488   1.437       .  S
C2486      C2489   1.445       .  S
C2487      N2494   1.154       .  T
C2488      N2493   1.156   1_554  T
C2489      N2491   1.157       .  T
C2490      N2492   1.156       .  T
C2495      C2496   1.400       .  A
C2495      C2500   1.398       .  A
C2496      C2497   1.404       .  A
C2496      C2501   1.429       .  S
C2497      C2498   1.409       .  A
C2497      C2504   1.449       .  S
C2498      C2499   1.419       .  A
C2499      C2500   1.401       .  A
C2499      C2502   1.453       .  S
C2500      C2503   1.446       .  S
C2501      N2508   1.153       .  T
C2502      N2507   1.157       .  T
C2503      N2505   1.156       .  T
C2504      N2506   1.157       .  T
C2509      C2510   1.425       .  A
C2509      C2514   1.411       .  A
C2510      C2511   1.423       .  A
C2510      C2515   1.444       .  S
C2511      C2512   1.413       .  A
C2511      C2518   1.445       .  S
C2512      C2513   1.415       .  A
C2513      C2514   1.367       .  A
C2513      C2516   1.450       .  S
C2514      C2517   1.455       .  S
C2516      N2521   1.155       .  T
C2517      N2519   1.157       .  T
C2518      N2520   1.156       .  T
C2523      C2524   1.426       .  A
C2523      C2528   1.405       .  A
C2524      C2525   1.413       .  A
C2524      C2529   1.451       .  S
C2525      C2526   1.410       .  A
C2525      C2532   1.450       .  S
C2526      C2527   1.439       .  A
C2527      C2528   1.406       .  A
C2527      C2530   1.455       .  S
C2528      C2531   1.454       .  S
C2529      N2536   1.157       .  T
C2531      N2533   1.157       .  T
C2532      N2534   1.157       .  T
C2537      C2538   1.435       .  A
C2537      C2542   1.410       .  A
C2538      C2539   1.410       .  A
C2538      C2543   1.452       .  S
C2539      C2540   1.417       .  A
C2539      C2546   1.458       .  S
C2540      C2541   1.431       .  A
C2541      C2542   1.426       .  A
C2541      C2544   1.446       .  S
C2542      C2545   1.448       .  S
C2543      N2550   1.157       .  T
C2544      N2549   1.156       .  T
C2545      N2547   1.157       .  T
C2546      N2548   1.158       .  T
O2551      C2559   1.273       .  A
O2551     Co2571   1.957       .  S
O2552      C2560   1.284       .  A
O2552     Co2572   2.005       .  S
O2553      C2561   1.261       .  A
O2553     Co2573   1.946       .  S
O2554      C2562   1.289       .  A
O2554     Co2574   2.108       .  S
O2555      C2561   1.282       .  A
O2556      C2562   1.283       .  A
O2557      C2560   1.282       .  A
O2557     Co2574   2.011       .  S
O2558      C2559   1.280       .  A
O2558     Co2573   2.026       .  S
C2559      C3047   1.497       .  S
C2560      C3005   1.490       .  S
C2561      C3022   1.504       .  S
C2562      C3033   1.502       .  S
O2563      C2576   1.286       .  A
O2564      C2577   1.262       .  A
O2565      C2578   1.277       .  A
O2565     Co2573   1.998       .  S
O2566      C2579   1.295       .  A
O2566     Co2574   2.050       .  S
O2567      C2579   1.265       .  A
O2567     Co2572   1.986       .  S
O2568      C2578   1.276       .  A
O2568     Co2571   1.998       .  S
O2569      C2576   1.286       .  A
O2569     Co2574   1.951       .  S
O2570      C2577   1.287       .  A
O2570     Co2573   2.018       .  S
Co2571     O2575   1.954       .  S
Co2573     O2575   2.014       .  S
C2576      C2963   1.547       .  S
C2577      C2980   1.510       .  S
C2578      C2991   1.477       .  S
C2579      C2952   1.524       .  S
O2580      C2588   1.277       .  A
O2580     Co2600   2.034       .  S
O2581      C2589   1.258       .  A
O2581     Co2601   1.981       .  S
O2582      C2590   1.279       .  A
O2583      C2591   1.300       .  A
O2584      C2590   1.275       .  A
O2584     Co2601   2.026       .  S
O2585      C2591   1.267       .  A
O2585     Co2600   1.984       .  S
O2586      C2589   1.278       .  A
O2586     Co2603   2.008       .  S
O2587      C2588   1.258       .  A
O2587     Co2602   1.969       .  S
C2588      C2935   1.488       .  S
C2589      C2896   1.494       .  S
C2590      C2924   1.502       .  S
C2591      C2910   1.512       .  S
O2592      C2605   1.297       .  A
O2592     Co2600   2.082       .  S
O2593      C2606   1.272       .  A
O2593     Co2601   1.989       .  S
O2594      C2607   1.286       .  A
O2594     Co2602   2.055       .  S
O2595      C2608   1.282       .  A
O2595     Co2603   2.034       .  S
O2596      C2608   1.272       .  A
O2596     Co2601   1.975       .  S
O2597      C2607   1.284       .  A
O2597     Co2600   2.001       .  S
O2598      C2605   1.254       .  A
O2599      C2606   1.256       .  A
Co2600     O2604   2.105       .  S
Co2602     O2604   2.102       .  S
C2605      C2837   1.547       .  S
C2606      C2882   1.486       .  S
C2607      C2854   1.510       .  S
C2608      C2868   1.475       .  S
O2609      C2617   1.273       .  A
O2609     Co2629   2.014       .  S
O2610      C2618   1.280       .  A
O2610     Co2630   1.897       .  S
O2611      C2619   1.250       .  A
O2611     Co3651   1.940       .  S
O2612      C2620   1.268       .  A
O2612     Co2632   2.009       .  S
O2613      C2619   1.289       .  A
O2613     Co2630   2.073       .  S
O2614      C2620   1.278       .  A
O2614     Co2629   1.994       .  S
O2615      C2618   1.304       .  A
O2615     Co3652   2.099       .  S
O2616      C2617   1.277       .  A
O2616     Co2631   2.036       .  S
C2617      C2826   1.512       .  S
C2618      C2781   1.473       .  S
C2619      C2798   1.525       .  S
C2620      C2812   1.499       .  S
O2621      C2634   1.263       .  A
O2621     Co2629   1.991       .  S
O2622      C2635   1.284       .  A
O2622     Co2630   2.015       .  S
O2623      C2636   1.280       .  A
O2623     Co2631   2.005       .  S
O2624      C2637   1.280       .  A
O2624     Co3652   2.021       .  S
O2625      C2637   1.289       .  A
O2625     Co2630   2.118       .  S
O2626      C2636   1.275       .  A
O2626     Co2629   1.992       .  S
O2627      C2634   1.291       .  A
O2627     Co2632   2.049       .  S
O2628      C2635   1.292       .  A
O2628     Co3651   2.009       .  S
Co2629     O2633   2.069       .  S
Co2630     O3653   1.940       .  S
Co2631     O3631   1.937   1_545  S
Co2631     O3648   2.011   1_545  S
Co2631     O2633   2.095       .  S
Co2632     O3635   2.105   1_545  S
Co2632     O3644   2.021   1_545  S
Co2632     O2633   2.132       .  S
O2633     Co3650   1.939   1_545  S
C2634      C2851   1.528       .  S
C2635      C2977   1.509       .  S
C2636      C2994   1.484       .  S
C2637      C2840   1.543       .  S
O2638      C2646   1.271       .  A
O2638     Co2658   1.994   1_545  S
O2639      C2647   1.271       .  A
O2639     Co3679   1.976       .  S
O2640      C2648   1.282       .  A
O2640     Co2660   1.974       .  S
O2641      C2649   1.279       .  A
O2641     Co2661   1.975       .  S
O2642      C2648   1.315       .  A
O2642     Co2659   2.119   1_545  S
O2643      C2649   1.274       .  A
O2643     Co3678   2.004       .  S
O2644      C2647   1.290       .  A
O2644     Co2661   2.020       .  S
O2645      C2646   1.280       .  A
O2645     Co2660   1.992       .  S
C2646      C2767   1.513       .  S
C2647      C2725   1.484       .  S
C2648      C2753   1.531       .  S
C2649      C2742   1.493       .  S
O2650      C2663   1.302       .  A
O2650     Co3678   2.042       .  S
O2651      C2664   1.277       .  A
O2651     Co2659   2.022   1_545  S
O2652      C2665   1.265       .  A
O2652     Co2660   1.972       .  S
O2653      C2666   1.272       .  A
O2653     Co2661   1.953       .  S
O2654      C2666   1.303       .  A
O2654     Co3679   2.049       .  S
O2655      C2665   1.302       .  A
O2655     Co2658   2.067   1_545  S
O2656      C2663   1.279       .  A
O2656     Co2661   2.004       .  S
O2657      C2664   1.268       .  A
O2657     Co2660   1.968       .  S
Co2658     O3663   2.016       .  S
Co2658     O3670   2.043       .  S
Co2658     O2662   2.037       .  S
Co2659     O3659   2.064       .  S
Co2659     O3674   2.045       .  S
Co2659     O2662   2.035       .  S
Co2660     O2662   1.925   1_545  S
Co2661     O3682   1.889       .  S
O2662     Co3681   1.930       .  S
C2663      C2949   1.532       .  S
C2664      C2879   1.501       .  S
C2665      C2966   1.549       .  S
C2666      C2865   1.494       .  S
O2667      C2675   1.282       .  A
O2667     Co2687   2.042       .  S
O2668      C2676   1.291       .  A
O2668     Co2688   2.042       .  S
O2669      C2677   1.269       .  A
O2670      C2678   1.235       .  A
O2671      C2677   1.299       .  A
O2671     Co2688   2.054       .  S
O2672      C2678   1.276       .  A
O2672     Co2687   2.045       .  S
O2673      C2676   1.274       .  A
O2673     Co2690   1.993       .  S
O2674      C2675   1.267       .  A
O2674     Co2689   1.975       .  S
C2675      C3050   1.502       .  S
C2676      C2921   1.512       .  S
C2677      C2938   1.509       .  S
C2678      C3036   1.482       .  S
O2679      C2692   1.297       .  A
O2679     Co2687   2.040       .  S
O2680      C2693   1.269       .  A
O2680     Co2688   1.996       .  S
O2681      C2694   1.293       .  A
O2681     Co2689   2.034       .  S
O2682      C2695   1.289       .  A
O2682     Co2690   2.018       .  S
O2683      C2695   1.277       .  A
O2683     Co2688   2.001       .  S
O2684      C2694   1.313       .  A
O2684     Co2687   2.113       .  S
O2685      C2692   1.308       .  A
O2686      C2693   1.291       .  A
Co2688     O2691   2.038       .  S
Co2690     O2691   2.020       .  S
C2692      C2770   1.515       .  S
C2693      C2809   1.509       .  S
C2694      C2823   1.526       .  S
C2695      C2756   1.516       .  S
O2696      C2704   1.278       .  A
O2696     Co2716   2.012       .  S
O2697      C2705   1.266       .  A
O2698      C2706   1.286       .  A
O2698     Co2718   1.999       .  S
O2699      C2707   1.297       .  A
O2699     Co2719   2.041       .  S
O2700      C2706   1.271       .  A
O2700     Co2717   1.992       .  S
O2701      C2707   1.267       .  A
O2702      C2705   1.286       .  A
O2702     Co2719   2.013       .  S
O2703      C2704   1.292       .  A
O2703     Co2718   2.011       .  S
C2704      C3019   1.495       .  S
C2705      C2893   1.496       .  S
C2706      C3008   1.504       .  S
C2707      C2907   1.522       .  S
O2708      C2721   1.295       .  A
O2709      C2722   1.288       .  A
O2709     Co2717   2.002       .  S
O2710      C2723   1.279       .  A
O2710     Co2718   2.011       .  S
O2711      C2724   1.274       .  A
O2711     Co2719   1.994       .  S
O2712      C2724   1.286       .  A
O2713      C2723   1.301       .  A
O2713     Co2716   2.052       .  S
O2714      C2721   1.264       .  A
O2714     Co2719   1.973       .  S
O2715      C2722   1.266       .  A
O2715     Co2718   1.967       .  S
Co2716     O2720   1.949       .  S
Co2717     O2720   2.025       .  S
Co2718     O2720   1.936       .  S
C2721      C2784   1.500       .  S
C2722      C2739   1.503       .  S
C2723      C2795   1.530       .  S
C2724      C2728   1.482       .  S
C2725      C2726   1.402       .  A
C2725      C2730   1.409       .  A
C2726      C2727   1.417       .  A
C2726      C2731   1.429       .  S
C2727      C2728   1.399       .  A
C2727      C2734   1.436       .  S
C2728      C2729   1.412       .  A
C2729      C2730   1.397       .  A
C2729      C2732   1.438       .  S
C2730      C2733   1.451       .  S
C2731      N2738   1.154       .  T
C2732      N2737   1.152       .  T
C2733      N2735   1.157       .  T
C2734      N2736   1.156       .  T
C2739      C2740   1.405       .  A
C2739      C2744   1.440       .  A
C2740      C2741   1.403       .  A
C2740      C2745   1.451       .  S
C2741      C2742   1.425       .  A
C2741      C2748   1.446       .  S
C2742      C2743   1.406       .  A
C2743      C2744   1.410       .  A
C2743      C2746   1.455       .  S
C2744      C2747   1.455       .  S
C2745      N2752   1.156       .  T
C2746      N2751   1.157       .  T
C2747      N2749   1.159       .  T
C2748      N3770   1.157       .  T
N2750      C3768   1.156       .  T
C2753      C2754   1.430       .  A
C2753      C2758   1.425       .  A
C2754      C2755   1.427       .  A
C2754      C2759   1.448       .  S
C2755      C2756   1.415       .  A
C2755      C2762   1.452       .  S
C2756      C2757   1.425       .  A
C2757      C2758   1.413       .  A
C2757      C2760   1.451       .  S
C2758      C2761   1.455       .  S
C2759      N2766   1.157   1_545  T
C2760      N2765   1.156       .  T
C2761      N2763   1.158       .  T
C2762      N2764   1.158       .  T
C2767      C2768   1.407       .  A
C2767      C2772   1.427       .  A
C2768      C2769   1.417       .  A
C2768      C2773   1.451       .  S
C2769      C2770   1.440       .  A
C2769      C2776   1.448       .  S
C2770      C2771   1.407       .  A
C2771      C2772   1.411       .  A
C2771      C2774   1.450       .  S
C2772      C2775   1.453       .  S
C2773      N2780   1.158       .  T
C2774      N2779   1.157       .  T
C2775      N2777   1.157       .  T
C2776      N2778   1.157       .  T
C2781      C2782   1.395       .  A
C2781      C2786   1.392       .  A
C2782      C2783   1.414       .  A
C2782      C2787   1.448       .  S
C2783      C2784   1.437       .  A
C2783      C2790   1.444       .  S
C2784      C2785   1.395       .  A
C2785      C2786   1.404       .  A
C2785      C2788   1.431       .  S
C2786      C2789   1.432       .  S
C2787      N2794   1.157       .  T
C2788      N3813   1.155       .  T
C2789      N3811   1.154       .  T
C2790      N2792   1.155       .  T
N2791      C3809   1.155       .  T
N2793      C3808   1.155       .  T
C2795      C2796   1.439       .  A
C2795      C2800   1.408       .  A
C2796      C2797   1.423       .  A
C2796      C2801   1.447       .  S
C2797      C2798   1.407       .  A
C2797      C2804   1.452       .  S
C2798      C2799   1.440       .  A
C2799      C2800   1.418       .  A
C2799      C2802   1.453       .  S
C2800      C2803   1.453       .  S
C2801      N2808   1.156       .  T
C2802      N2807   1.157       .  T
C2803      N2805   1.158       .  T
C2804      N2806   1.158       .  T
C2809      C2810   1.392       .  A
C2809      C2814   1.435       .  A
C2810      C2811   1.393       .  A
C2810      C2815   1.441       .  S
C2811      C2812   1.403       .  A
C2811      C2818   1.432       .  S
C2812      C2813   1.414       .  A
C2813      C2814   1.428       .  A
C2813      C2816   1.444       .  S
C2814      C2817   1.450       .  S
C2815      N3842   1.158       .  T
C2816      N2821   1.157       .  T
C2817      N2819   1.157       .  T
C2818      N3840   1.151       .  T
N2820      C3838   1.151       .  T
N2822      C3835   1.158       .  T
C2823      C2824   1.426       .  A
C2823      C2828   1.421       .  A
C2824      C2825   1.417       .  A
C2824      C2829   1.443       .  S
C2825      C2826   1.402       .  A
C2825      C2832   1.447       .  S
C2826      C2827   1.410       .  A
C2827      C2828   1.428       .  A
C2827      C2830   1.445       .  S
C2828      C2831   1.445       .  S
C2829      N2836   1.154       .  T
C2830      N3855   1.157   1_545  T
C2831      N2833   1.157       .  T
C2832      N2834   1.155       .  T
N2835      C3850   1.157       .  T
C2837      C2838   1.440       .  A
C2837      C2842   1.407       .  A
C2838      C2839   1.430       .  A
C2838      C2843   1.450       .  S
C2839      C2840   1.413       .  A
C2839      C2846   1.450       .  S
C2840      C2841   1.420       .  A
C2841      C2842   1.428       .  A
C2841      C2844   1.436       .  S
C2842      C2845   1.442       .  S
C2843      N2850   1.157       .  T
C2844      N2849   1.157       .  T
C2845      N2847   1.157       .  T
C2846      N2848   1.157       .  T
C2851      C2852   1.437       .  A
C2851      C2856   1.411       .  A
C2852      C2853   1.416       .  A
C2852      C2857   1.442       .  S
C2853      C2854   1.402       .  A
C2853      C2860   1.452       .  S
C2854      C2855   1.414       .  A
C2855      C2856   1.417       .  A
C2855      C2858   1.438       .  S
C2856      C2859   1.447       .  S
C2857      N2864   1.154       .  T
C2859      N2861   1.157       .  T
C2860      N2862   1.157       .  T
C2865      C2866   1.407       .  A
C2865      C2870   1.434       .  A
C2866      C2867   1.413       .  A
C2866      C2871   1.444       .  S
C2867      C2868   1.399       .  A
C2867      C2874   1.439       .  S
C2868      C2869   1.398       .  A
C2869      C2870   1.404       .  A
C2869      C2872   1.450       .  S
C2870      C2873   1.455       .  S
C2871      N2878   1.157       .  T
C2872      N2877   1.156       .  T
C2873      N2875   1.158       .  T
C2879      C2880   1.418       .  A
C2879      C2884   1.418       .  A
C2880      C2881   1.405       .  A
C2880      C2885   1.453       .  S
C2881      C2882   1.423       .  A
C2881      C2888   1.457       .  S
C2882      C2883   1.410       .  A
C2883      C2884   1.412       .  A
C2883      C2886   1.450       .  S
C2884      C2887   1.448       .  S
C2885      N2892   1.158       .  T
C2886      N2891   1.158       .  T
C2887      N2889   1.156       .  T
C2893      C2894   1.434       .  A
C2893      C2898   1.408       .  A
C2894      C2895   1.411       .  A
C2894      C2899   1.451       .  S
C2895      C2896   1.407       .  A
C2895      C2902   1.455       .  S
C2896      C2897   1.429       .  A
C2897      C2898   1.410       .  A
C2897      C2900   1.452       .  S
C2898      C2901   1.455       .  S
C2899      N2906   1.157   1_655  T
C2900      N2905   1.158       .  T
C2901      N2903   1.157       .  T
C2902      N2904   1.157       .  T
C2907      C2908   1.406       .  A
C2907      C2912   1.439       .  A
C2908      C2909   1.421       .  A
C2908      C2913   1.452       .  S
C2909      C2910   1.438       .  A
C2909      C2916   1.450       .  S
C2910      C2911   1.402       .  A
C2911      C2912   1.413       .  A
C2911      C2914   1.452       .  S
C2912      C2915   1.454       .  S
C2913      N2920   1.158       .  T
C2914      N2919   1.157       .  T
C2915      N2917   1.158       .  T
C2916      N2918   1.157       .  T
C2921      C2922   1.413       .  A
C2921      C2926   1.415       .  A
C2922      C2923   1.400       .  A
C2922      C2927   1.444       .  S
C2923      C2924   1.398       .  A
C2923      C2930   1.440       .  S
C2924      C2925   1.406       .  A
C2925      C2926   1.439       .  A
C2925      C2928   1.442       .  S
C2926      C2929   1.436       .  S
C2927      N2934   1.155       .  T
C2928      N2933   1.158       .  T
C2929      N2931   1.154   1_655  T
C2930      N2932   1.155       .  T
C2935      C2936   1.399       .  A
C2935      C2940   1.419       .  A
C2936      C2937   1.396       .  A
C2936      C2941   1.454       .  S
C2937      C2938   1.430       .  A
C2937      C2944   1.447       .  S
C2938      C2939   1.415       .  A
C2939      C2940   1.426       .  A
C2939      C2942   1.444       .  S
C2940      C2943   1.448       .  S
C2941      N2948   1.157       .  T
C2942      N2947   1.157   1_655  T
C2943      N2945   1.158       .  T
C2944      N2946   1.156       .  T
C2949      C2950   1.407       .  A
C2949      C2954   1.442       .  A
C2950      C2951   1.419       .  A
C2950      C2955   1.454       .  S
C2951      C2952   1.432       .  A
C2951      C2958   1.439       .  S
C2952      C2953   1.407       .  A
C2953      C2954   1.426       .  A
C2953      C2956   1.451       .  S
C2954      C2957   1.450       .  S
C2955      N2962   1.158       .  T
C2956      N2961   1.157       .  T
C2957      N2959   1.157       .  T
C2958      N2960   1.154       .  T
C2963      C2964   1.410       .  A
C2963      C2968   1.445       .  A
C2964      C2965   1.422       .  A
C2964      C2969   1.450       .  S
C2965      C2966   1.442       .  A
C2965      C2972   1.451       .  S
C2966      C2967   1.412       .  A
C2967      C2968   1.435       .  A
C2967      C2970   1.452       .  S
C2968      C2971   1.450       .  S
C2969      N2976   1.158       .  T
C2970      N2975   1.159       .  T
C2971      N2973   1.156   1_556  T
C2972      N2974   1.156       .  T
C2977      C2978   1.406       .  A
C2977      C2982   1.444       .  A
C2978      C2979   1.413       .  A
C2978      C2983   1.451       .  S
C2979      C2980   1.429       .  A
C2979      C2986   1.452       .  S
C2980      C2981   1.401       .  A
C2981      C2982   1.414       .  A
C2981      C2984   1.452       .  S
C2982      C2985   1.450       .  S
C2983      N2990   1.158       .  T
C2984      N2989   1.158       .  T
C2985      N2987   1.156       .  T
C2986      N2988   1.157       .  T
C2991      C2992   1.398       .  A
C2991      C2996   1.407       .  A
C2992      C2993   1.393       .  A
C2992      C2997   1.440       .  S
C2993      C2994   1.404       .  A
C2993      C3000   1.448       .  S
C2994      C2995   1.411       .  A
C2995      C2996   1.426       .  A
C2995      C2998   1.440       .  S
C2996      C2999   1.443       .  S
C2997      N3004   1.154       .  T
C2998      N3003   1.157       .  T
C2999      N3001   1.157       .  T
C3000      N3002   1.157       .  T
C3005      C3006   1.403       .  A
C3005      C3010   1.399       .  A
C3006      C3007   1.412       .  A
C3006      C3011   1.425       .  S
C3007      C3008   1.405       .  A
C3007      C3014   1.446       .  S
C3008      C3009   1.430       .  A
C3009      C3010   1.409       .  A
C3009      C3012   1.454       .  S
C3010      C3013   1.447       .  S
C3011      N3018   1.151       .  T
C3012      N3017   1.156       .  T
C3013      N3015   1.156       .  T
C3014      N3016   1.158       .  T
C3019      C3020   1.440       .  A
C3019      C3024   1.401       .  A
C3020      C3021   1.429       .  A
C3020      C3025   1.447       .  S
C3021      C3022   1.409       .  A
C3021      C3028   1.447       .  S
C3022      C3023   1.415       .  A
C3023      C3024   1.380       .  A
C3023      C3026   1.449       .  S
C3024      C3027   1.450       .  S
C3026      N3031   1.154       .  T
C3027      N3029   1.157       .  T
C3028      N3030   1.157       .  T
C3033      C3034   1.441       .  A
C3033      C3038   1.410       .  A
C3034      C3035   1.410       .  A
C3034      C3039   1.449       .  S
C3035      C3036   1.398       .  A
C3035      C3042   1.455       .  S
C3036      C3037   1.428       .  A
C3037      C3038   1.412       .  A
C3037      C3040   1.452       .  S
C3038      C3041   1.451       .  S
C3039      N3046   1.157       .  T
C3041      N3043   1.157       .  T
C3042      N3044   1.157       .  T
C3047      C3048   1.419       .  A
C3047      C3052   1.415       .  A
C3048      C3049   1.399       .  A
C3048      C3053   1.446       .  S
C3049      C3050   1.415       .  A
C3049      C3056   1.457       .  S
C3050      C3051   1.426       .  A
C3051      C3052   1.418       .  A
C3051      C3054   1.451       .  S
C3052      C3055   1.452       .  S
C3053      N3060   1.155       .  T
C3054      N3059   1.158       .  T
C3055      N3057   1.157       .  T
C3056      N3058   1.157       .  T
O3061      C3069   1.287       .  A
O3061     Co3081   2.036       .  S
O3062      C3070   1.279       .  A
O3062     Co3082   1.999       .  S
O3063      C3071   1.264       .  A
O3063     Co3083   1.946       .  S
O3064      C3072   1.268       .  A
O3064     Co3084   1.966       .  S
O3065      C3071   1.284       .  A
O3065     Co3592   2.009   1_554  S
O3066      C3072   1.288       .  A
O3066     Co3591   2.009       .  S
O3067      C3070   1.281       .  A
O3067     Co3084   2.026       .  S
O3068      C3069   1.262       .  A
O3068     Co3083   1.971       .  S
C3069      C3557   1.513       .  S
C3070      C3515   1.489       .  S
C3071      C3532   1.492       .  S
C3072      C3543   1.485       .  S
O3073      C3086   1.278       .  A
O3073     Co3591   2.011       .  S
O3074      C3087   1.268       .  A
O3074     Co3592   1.977   1_554  S
O3075      C3088   1.291       .  A
O3075     Co3083   2.031       .  S
O3076      C3089   1.278       .  A
O3076     Co3084   1.964       .  S
O3077      C3089   1.277       .  A
O3077     Co3082   2.022       .  S
O3078      C3088   1.275       .  A
O3078     Co3081   1.984       .  S
O3079      C3086   1.298       .  A
O3079     Co3084   2.061       .  S
O3080      C3087   1.290       .  A
O3080     Co3083   2.006       .  S
Co3081     O3576   1.915   1_554  S
Co3081     O3583   2.122   1_554  S
Co3081     O3085   1.968       .  S
Co3082     O3575   2.019       .  S
Co3082     O3584   1.979       .  S
Co3082     O3595   2.058       .  S
Co3083     O3085   2.008       .  S
Co3084     O3595   1.954       .  S
O3085     Co3592   2.034   1_554  S
O3085     Co3594   1.957   1_554  S
C3086      C3473   1.533       .  S
C3087      C3490   1.502       .  S
C3088      C3501   1.495       .  S
C3089      C3462   1.496       .  S
O3090      C3098   1.279       .  A
O3090     Co3110   2.044       .  S
O3091      C3099   1.253       .  A
O3091     Co3111   1.969       .  S
O3092      C3100   1.279       .  A
O3092     Co3622   2.013       .  S
O3093      C3101   1.296       .  A
O3093     Co3623   2.036       .  S
O3094      C3100   1.277       .  A
O3094     Co3111   2.039       .  S
O3095      C3101   1.263       .  A
O3095     Co3110   1.977       .  S
O3096      C3099   1.279       .  A
O3096     Co3113   2.013       .  S
O3097      C3098   1.259       .  A
O3097     Co3112   1.970       .  S
C3098      C3445   1.494       .  S
C3099      C3406   1.489       .  S
C3100      C3434   1.508       .  S
C3101      C3420   1.505       .  S
O3102      C3115   1.298       .  A
O3102     Co3110   2.073       .  S
O3103      C3116   1.269       .  A
O3103     Co3111   1.985       .  S
O3104      C3117   1.285       .  A
O3104     Co3112   2.056       .  S
O3105      C3118   1.286       .  A
O3105     Co3113   2.045       .  S
O3106      C3118   1.272       .  A
O3106     Co3111   1.968       .  S
O3107      C3117   1.283       .  A
O3107     Co3110   2.006       .  S
O3108      C3115   1.257       .  A
O3108     Co3623   1.983       .  S
O3109      C3116   1.256       .  A
O3109     Co3622   1.974       .  S
Co3110     O3114   2.109   1_554  S
Co3111     O3624   2.101       .  S
Co3112     O3602   2.007   1_554  S
Co3112     O3619   1.975   1_554  S
Co3112     O3114   2.105   1_554  S
Co3113     O3603   2.032       .  S
Co3113     O3618   1.984       .  S
Co3113     O3624   2.091       .  S
O3114     Co3621   2.100       .  S
O3114     Co3623   2.097   1_556  S
C3115      C3347   1.543       .  S
C3116      C3392   1.486       .  S
C3117      C3364   1.516       .  S
C3118      C3378   1.475       .  S
O3119      C3127   1.265       .  A
O3119     Co3139   1.998       .  S
O3120      C3128   1.280       .  A
O3120     Co3140   1.893       .  S
O3121      C3129   1.250       .  A
O3122      C3130   1.270       .  A
O3122     Co3142   2.016       .  S
O3123      C3129   1.292       .  A
O3123     Co3140   2.083       .  S
O3124      C3130   1.275       .  A
O3124     Co3139   1.990       .  S
O3125      C3128   1.305       .  A
O3126      C3127   1.269       .  A
O3126     Co3141   2.008       .  S
C3127      C3336   1.488       .  S
C3128      C3291   1.472       .  S
C3129      C3308   1.535       .  S
C3130      C3322   1.500       .  S
O3131      C3144   1.258       .  A
O3131     Co3139   1.988       .  S
O3132      C3145   1.281       .  A
O3132     Co3140   2.008       .  S
O3133      C3146   1.282       .  A
O3133     Co3141   2.002       .  S
O3134      C3147   1.280       .  A
O3135      C3147   1.289       .  A
O3135     Co3140   2.120       .  S
O3136      C3146   1.279       .  A
O3136     Co3139   2.013       .  S
O3137      C3144   1.291       .  A
O3137     Co3142   2.062       .  S
O3138      C3145   1.289       .  A
Co3139     O3143   2.064       .  S
Co3141     O3143   2.098       .  S
Co3142     O3143   2.124       .  S
C3144      C3361   1.538       .  S
C3145      C3487   1.499       .  S
C3146      C3504   1.489       .  S
C3147      C3350   1.541       .  S
O3148      C3156   1.269       .  A
O3148     Co3168   1.991       .  S
O3149      C3157   1.306       .  A
O3150      C3158   1.283       .  A
O3150     Co3170   1.977       .  S
O3151      C3159   1.281       .  A
O3151     Co3171   1.984       .  S
O3152      C3158   1.310       .  A
O3152     Co3169   2.105       .  S
O3153      C3159   1.275       .  A
O3154      C3157   1.287       .  A
O3154     Co3171   1.997       .  S
O3155      C3156   1.278       .  A
O3155     Co3170   1.989       .  S
C3156      C3277   1.513       .  S
C3157      C3235   1.492       .  S
C3158      C3263   1.530       .  S
C3159      C3252   1.500       .  S
O3160      C3173   1.288       .  A
O3161      C3174   1.279       .  A
O3161     Co3169   2.028       .  S
O3162      C3175   1.271       .  A
O3162     Co3170   1.998       .  S
O3163      C3176   1.265       .  A
O3163     Co3171   1.947       .  S
O3164      C3176   1.281       .  A
O3165      C3175   1.293       .  A
O3165     Co3168   2.039       .  S
O3166      C3173   1.270       .  A
O3166     Co3171   1.991       .  S
O3167      C3174   1.267       .  A
O3167     Co3170   1.959       .  S
Co3168     O3172   2.035       .  S
Co3169     O3172   2.039       .  S
Co3170     O3172   1.920       .  S
C3173      C3459   1.508       .  S
C3174      C3389   1.501       .  S
C3175      C3476   1.542       .  S
C3176      C3375   1.485       .  S
O3177      C3185   1.287       .  A
O3177     Co3197   1.999       .  S
O3178      C3186   1.289       .  A
O3178     Co3198   2.044       .  S
O3179      C3187   1.306       .  A
O3180      C3188   1.258       .  A
O3181      C3187   1.300       .  A
O3181     Co3198   2.018       .  S
O3182      C3188   1.283       .  A
O3182     Co3197   1.998       .  S
O3183      C3186   1.273       .  A
O3183     Co3200   2.003   1_655  S
O3184      C3185   1.282       .  A
O3184     Co3199   2.025       .  S
C3185      C3560   1.516       .  S
C3186      C3431   1.526       .  S
C3187      C3448   1.510       .  S
C3188      C3546   1.492       .  S
O3189      C3202   1.269       .  A
O3189     Co3197   1.978       .  S
O3190      C3203   1.250       .  A
O3190     Co3198   1.974       .  S
O3191      C3204   1.292       .  A
O3191     Co3199   2.035       .  S
O3192      C3205   1.290       .  A
O3192     Co3200   2.017   1_655  S
O3193      C3205   1.279       .  A
O3193     Co3198   2.007       .  S
O3194      C3204   1.279       .  A
O3194     Co3197   2.004       .  S
O3195      C3202   1.302       .  A
O3196      C3203   1.267       .  A
Co3198     O3201   2.074       .  S
Co3200     O3201   2.048   1_455  S
C3202      C3280   1.514       .  S
C3203      C3319   1.507       .  S
C3204      C3333   1.508       .  S
C3205      C3266   1.519       .  S
O3206      C3214   1.277       .  A
O3206     Co3226   2.000       .  S
O3207      C3215   1.265       .  A
O3208      C3216   1.284       .  A
O3208     Co3228   1.994       .  S
O3209      C3217   1.295       .  A
O3209     Co3229   2.040       .  S
O3210      C3216   1.273       .  A
O3210     Co3227   1.996       .  S
O3211      C3217   1.266       .  A
O3212      C3215   1.282       .  A
O3212     Co3229   2.004       .  S
O3213      C3214   1.291       .  A
O3213     Co3228   2.003       .  S
C3214      C3529   1.481       .  S
C3215      C3403   1.490       .  S
C3216      C3518   1.503       .  S
C3217      C3417   1.520       .  S
O3218      C3231   1.294       .  A
O3219      C3232   1.289       .  A
O3219     Co3227   2.004       .  S
O3220      C3233   1.277       .  A
O3220     Co3228   2.011       .  S
O3221      C3234   1.277       .  A
O3221     Co3229   2.010       .  S
O3222      C3234   1.285       .  A
O3223      C3233   1.307       .  A
O3223     Co3226   2.065       .  S
O3224      C3231   1.263       .  A
O3224     Co3229   1.968       .  S
O3225      C3232   1.269       .  A
O3225     Co3228   1.978       .  S
Co3226     O3230   1.945       .  S
Co3227     O3230   2.021       .  S
Co3228     O3230   1.940       .  S
C3231      C3294   1.500       .  S
C3232      C3249   1.504       .  S
C3233      C3305   1.532       .  S
C3234      C3238   1.485       .  S
C3235      C3236   1.406       .  A
C3235      C3240   1.413       .  A
C3236      C3237   1.415       .  A
C3236      C3241   1.431       .  S
C3237      C3238   1.393       .  A
C3237      C3244   1.435       .  S
C3238      C3239   1.407       .  A
C3239      C3240   1.409       .  A
C3239      C3242   1.440       .  S
C3240      C3243   1.451       .  S
C3241      N3248   1.153       .  T
C3242      N3247   1.153       .  T
C3243      N3245   1.157       .  T
C3244      N3246   1.156       .  T
C3249      C3250   1.402       .  A
C3249      C3254   1.437       .  A
C3250      C3251   1.402       .  A
C3250      C3255   1.449       .  S
C3251      C3252   1.426       .  A
C3251      C3258   1.443       .  S
C3252      C3253   1.410       .  A
C3253      C3254   1.416       .  A
C3253      C3256   1.452       .  S
C3254      C3257   1.455       .  S
C3255      N3262   1.156       .  T
C3256      N3261   1.157       .  T
C3257      N3259   1.159       .  T
C3263      C3264   1.431       .  A
C3263      C3268   1.422       .  A
C3264      C3265   1.428       .  A
C3264      C3269   1.448       .  S
C3265      C3266   1.417       .  A
C3265      C3272   1.452       .  S
C3266      C3267   1.426       .  A
C3267      C3268   1.410       .  A
C3267      C3270   1.450       .  S
C3268      C3271   1.454       .  S
C3269      N3276   1.157       .  T
C3270      N3275   1.156       .  T
C3271      N3273   1.157       .  T
C3272      N3274   1.157       .  T
C3277      C3278   1.406       .  A
C3277      C3282   1.428       .  A
C3278      C3279   1.416       .  A
C3278      C3283   1.452       .  S
C3279      C3280   1.440       .  A
C3279      C3286   1.447       .  S
C3280      C3281   1.408       .  A
C3281      C3282   1.412       .  A
C3281      C3284   1.450       .  S
C3282      C3285   1.453       .  S
C3283      N3290   1.157       .  T
C3284      N3289   1.157       .  T
C3285      N3287   1.158       .  T
C3286      N3288   1.157       .  T
C3291      C3292   1.395       .  A
C3291      C3296   1.390       .  A
C3292      C3293   1.413       .  A
C3292      C3297   1.448       .  S
C3293      C3294   1.439       .  A
C3293      C3300   1.445       .  S
C3294      C3295   1.395       .  A
C3295      C3296   1.403       .  A
C3295      C3298   1.431       .  S
C3296      C3299   1.433       .  S
C3297      N3304   1.157       .  T
C3300      N3302   1.155       .  T
C3305      C3306   1.441       .  A
C3305      C3310   1.401       .  A
C3306      C3307   1.429       .  A
C3306      C3311   1.442       .  S
C3307      C3308   1.408       .  A
C3307      C3314   1.455       .  S
C3308      C3309   1.443       .  A
C3309      C3310   1.418       .  A
C3309      C3312   1.443       .  S
C3310      C3313   1.457       .  S
C3311      N3318   1.159       .  T
C3312      N3317   1.158   1_565  T
C3313      N3315   1.154       .  T
C3314      N3316   1.154       .  T
C3319      C3320   1.407       .  A
C3319      C3324   1.427       .  A
C3320      C3321   1.391       .  A
C3320      C3325   1.447       .  S
C3321      C3322   1.404       .  A
C3321      C3328   1.428       .  S
C3322      C3323   1.412       .  A
C3323      C3324   1.424       .  A
C3323      C3326   1.444       .  S
C3324      C3327   1.448       .  S
C3326      N3331   1.157       .  T
C3327      N3329   1.157       .  T
C3333      C3334   1.428       .  A
C3333      C3338   1.416       .  A
C3334      C3335   1.409       .  A
C3334      C3339   1.447       .  S
C3335      C3336   1.401       .  A
C3335      C3342   1.452       .  S
C3336      C3337   1.407       .  A
C3337      C3338   1.420       .  A
C3337      C3340   1.446       .  S
C3338      C3341   1.445       .  S
C3339      N3346   1.155       .  T
C3341      N3343   1.156       .  T
C3342      N3344   1.157       .  T
C3347      C3348   1.439       .  A
C3347      C3352   1.406       .  A
C3348      C3349   1.433       .  A
C3348      C3353   1.450       .  S
C3349      C3350   1.414       .  A
C3349      C3356   1.449       .  S
C3350      C3351   1.416       .  A
C3351      C3352   1.423       .  A
C3351      C3354   1.435       .  S
C3352      C3355   1.442       .  S
C3353      N3360   1.157   1_554  T
C3354      N3359   1.156       .  T
C3355      N3357   1.156       .  T
C3356      N3358   1.158       .  T
C3361      C3362   1.442       .  A
C3361      C3366   1.411       .  A
C3362      C3363   1.423       .  A
C3362      C3367   1.444       .  S
C3363      C3364   1.402       .  A
C3363      C3370   1.451       .  S
C3364      C3365   1.409       .  A
C3365      C3366   1.421       .  A
C3365      C3368   1.438   1_554  S
C3366      C3369   1.445       .  S
C3367      N3374   1.155       .  T
C3368      N3883   1.158       .  T
C3369      N3371   1.157       .  T
C3370      N3372   1.157       .  T
N3373      C3878   1.158       .  T
C3375      C3376   1.415       .  A
C3375      C3380   1.419       .  A
C3376      C3377   1.406       .  A
C3376      C3381   1.447       .  S
C3377      C3378   1.394       .  A
C3377      C3384   1.439       .  S
C3378      C3379   1.403       .  A
C3379      C3380   1.405       .  A
C3379      C3382   1.444       .  S
C3380      C3383   1.453       .  S
C3381      N3388   1.157       .  T
C3382      N3387   1.155       .  T
C3383      N3385   1.158       .  T
C3384      N3896   1.156       .  T
N3386      C3894   1.156       .  T
C3389      C3390   1.419       .  A
C3389      C3394   1.421       .  A
C3390      C3391   1.405       .  A
C3390      C3395   1.454       .  S
C3391      C3392   1.422       .  A
C3391      C3398   1.457       .  S
C3392      C3393   1.410       .  A
C3393      C3394   1.412       .  A
C3393      C3396   1.451       .  S
C3394      C3397   1.449       .  S
C3395      N3402   1.158       .  T
C3396      N3401   1.158       .  T
C3397      N3399   1.157       .  T
C3398      N3910   1.158       .  T
N3400      C3908   1.156   1_554  T
C3403      C3404   1.428       .  A
C3403      C3408   1.407       .  A
C3404      C3405   1.409       .  A
C3404      C3409   1.451       .  S
C3405      C3406   1.405       .  A
C3405      C3412   1.453       .  S
C3406      C3407   1.430       .  A
C3407      C3408   1.406       .  A
C3407      C3410   1.452       .  S
C3408      C3411   1.455       .  S
C3409      N3416   1.156   1_655  T
C3410      N3415   1.158       .  T
C3411      N3413   1.158       .  T
C3412      N3414   1.157       .  T
C3417      C3418   1.405       .  A
C3417      C3422   1.438       .  A
C3418      C3419   1.420       .  A
C3418      C3423   1.452       .  S
C3419      C3420   1.437       .  A
C3419      C3426   1.449       .  S
C3420      C3421   1.401       .  A
C3421      C3422   1.412       .  A
C3421      C3424   1.454       .  S
C3422      C3425   1.454       .  S
C3423      N3430   1.157       .  T
C3424      N3429   1.157       .  T
C3425      N3427   1.158       .  T
C3426      N3428   1.157       .  T
C3431      C3432   1.420       .  A
C3431      C3436   1.418       .  A
C3432      C3433   1.406       .  A
C3432      C3437   1.445       .  S
C3433      C3434   1.397       .  A
C3433      C3440   1.441       .  S
C3434      C3435   1.407       .  A
C3435      C3436   1.438       .  A
C3435      C3438   1.442       .  S
C3436      C3439   1.438       .  S
C3437      N3444   1.155       .  T
C3438      N3443   1.157       .  T
C3439      N3441   1.155       .  T
C3440      N3442   1.155       .  T
C3445      C3446   1.400       .  A
C3445      C3450   1.419       .  A
C3446      C3447   1.401       .  A
C3446      C3451   1.453       .  S
C3447      C3448   1.426       .  A
C3447      C3454   1.442       .  S
C3448      C3449   1.415       .  A
C3449      C3450   1.425       .  A
C3449      C3452   1.445       .  S
C3450      C3453   1.448       .  S
C3451      N3458   1.156       .  T
C3452      N3457   1.157       .  T
C3453      N3455   1.158       .  T
C3454      N3456   1.155       .  T
C3459      C3460   1.409       .  A
C3459      C3464   1.437       .  A
C3460      C3461   1.408       .  A
C3460      C3465   1.454       .  S
C3461      C3462   1.420       .  A
C3461      C3468   1.439       .  S
C3462      C3463   1.406       .  A
C3463      C3464   1.412       .  A
C3463      C3466   1.454       .  S
C3464      C3467   1.452       .  S
C3465      N3472   1.158       .  T
C3466      N3471   1.158       .  T
C3467      N3469   1.157       .  T
C3468      N3470   1.153       .  T
C3473      C3474   1.413       .  A
C3473      C3478   1.433       .  A
C3474      C3475   1.421       .  A
C3474      C3479   1.451       .  S
C3475      C3476   1.435       .  A
C3475      C3482   1.452       .  S
C3476      C3477   1.417       .  A
C3477      C3478   1.430       .  A
C3477      C3480   1.450       .  S
C3478      C3481   1.451       .  S
C3479      N3486   1.157       .  T
C3480      N3485   1.157       .  T
C3481      N3483   1.157       .  T
C3482      N3484   1.157       .  T
C3487      C3488   1.403       .  A
C3487      C3492   1.442       .  A
C3488      C3489   1.406       .  A
C3488      C3493   1.450       .  S
C3489      C3490   1.426       .  A
C3489      C3496   1.452       .  S
C3490      C3491   1.401       .  A
C3491      C3492   1.413       .  A
C3491      C3494   1.451       .  S
C3492      C3495   1.449       .  S
C3493      N3500   1.158       .  T
C3494      N3499   1.158       .  T
C3495      N3497   1.156       .  T
C3496      N3498   1.157       .  T
C3501      C3502   1.415       .  A
C3501      C3506   1.413       .  A
C3502      C3503   1.400       .  A
C3502      C3507   1.441       .  S
C3503      C3504   1.398       .  A
C3503      C3510   1.449       .  S
C3504      C3505   1.406       .  A
C3505      C3506   1.429       .  A
C3505      C3508   1.438       .  S
C3506      C3509   1.444       .  S
C3507      N3514   1.152       .  T
C3508      N3513   1.157       .  T
C3509      N3511   1.157       .  T
C3510      N3512   1.156       .  T
C3515      C3516   1.408       .  A
C3515      C3520   1.397       .  A
C3516      C3517   1.416       .  A
C3516      C3521   1.431       .  S
C3517      C3518   1.406       .  A
C3517      C3524   1.445       .  S
C3518      C3519   1.426       .  A
C3519      C3520   1.404       .  A
C3519      C3522   1.454       .  S
C3520      C3523   1.446       .  S
C3521      N3528   1.153       .  T
C3522      N3527   1.157       .  T
C3523      N3525   1.156       .  T
C3524      N3526   1.158       .  T
C3529      C3530   1.436       .  A
C3529      C3534   1.399       .  A
C3530      C3531   1.421       .  A
C3530      C3535   1.447       .  S
C3531      C3532   1.407       .  A
C3531      C3538   1.447       .  S
C3532      C3533   1.418       .  A
C3533      C3534   1.376       .  A
C3533      C3536   1.449       .  S
C3534      C3537   1.451       .  S
C3536      N3541   1.154       .  T
C3537      N3539   1.156       .  T
C3538      N3540   1.157       .  T
C3543      C3544   1.425       .  A
C3543      C3548   1.400       .  A
C3544      C3545   1.409       .  A
C3544      C3549   1.450       .  S
C3545      C3546   1.409       .  A
C3545      C3552   1.451       .  S
C3546      C3547   1.441       .  A
C3547      C3548   1.402       .  A
C3547      C3550   1.455       .  S
C3548      C3551   1.455       .  S
C3549      N3556   1.158       .  T
C3551      N3553   1.157       .  T
C3552      N3554   1.156       .  T
C3557      C3558   1.436       .  A
C3557      C3562   1.410       .  A
C3558      C3559   1.407       .  A
C3558      C3563   1.451       .  S
C3559      C3560   1.410       .  A
C3559      C3566   1.456       .  S
C3560      C3561   1.432       .  A
C3561      C3562   1.422       .  A
C3561      C3564   1.450       .  S
C3562      C3565   1.449       .  S
C3563      N3570   1.157       .  T
C3564      N3569   1.157       .  T
C3565      N3567   1.157       .  T
C3566      N3568   1.157       .  T
O3571      C3579   1.275       .  A
O3571     Co3591   1.964       .  S
O3572      C3580   1.286       .  A
O3572     Co3592   2.013       .  S
O3573      C3581   1.262       .  A
O3573     Co3593   1.947       .  S
O3574      C3582   1.291       .  A
O3574     Co3594   2.115       .  S
O3575      C3581   1.283       .  A
O3576      C3582   1.283       .  A
O3577      C3580   1.280       .  A
O3577     Co3594   2.005       .  S
O3578      C3579   1.278       .  A
O3578     Co3593   2.017       .  S
C3579      C4067   1.497       .  S
C3580      C4025   1.493       .  S
C3581      C4042   1.506       .  S
C3582      C4053   1.507       .  S
O3583      C3596   1.284       .  A
O3584      C3597   1.264       .  A
O3585      C3598   1.282       .  A
O3585     Co3593   2.009       .  S
O3586      C3599   1.296       .  A
O3586     Co3594   2.051       .  S
O3587      C3599   1.265       .  A
O3587     Co3592   1.986       .  S
O3588      C3598   1.275       .  A
O3588     Co3591   1.994       .  S
O3589      C3596   1.286       .  A
O3589     Co3594   1.948       .  S
O3590      C3597   1.289       .  A
O3590     Co3593   2.021       .  S
Co3591     O3595   1.956       .  S
Co3593     O3595   2.019       .  S
C3596      C3983   1.544       .  S
C3597      C4000   1.514       .  S
C3598      C4011   1.484       .  S
C3599      C3972   1.525       .  S
O3600      C3608   1.281       .  A
O3600     Co3620   2.048       .  S
O3601      C3609   1.255       .  A
O3601     Co3621   1.974       .  S
O3602      C3610   1.277       .  A
O3603      C3611   1.296       .  A
O3604      C3610   1.277       .  A
O3604     Co3621   2.033       .  S
O3605      C3611   1.263       .  A
O3605     Co3620   1.974       .  S
O3606      C3609   1.280       .  A
O3606     Co3623   2.014   1_556  S
O3607      C3608   1.261       .  A
O3607     Co3622   1.975       .  S
C3608      C3955   1.497       .  S
C3609      C3916   1.492       .  S
C3610      C3944   1.502       .  S
C3611      C3930   1.501       .  S
O3612      C3625   1.299       .  A
O3612     Co3620   2.083       .  S
O3613      C3626   1.272       .  A
O3613     Co3621   1.994       .  S
O3614      C3627   1.284       .  A
O3614     Co3622   2.049       .  S
O3615      C3628   1.285       .  A
O3615     Co3623   2.042   1_556  S
O3616      C3628   1.273       .  A
O3616     Co3621   1.970       .  S
O3617      C3627   1.282       .  A
O3617     Co3620   2.000       .  S
O3618      C3625   1.256       .  A
O3619      C3626   1.255       .  A
Co3620     O3624   2.108       .  S
Co3622     O3624   2.108       .  S
C3625      C3857   1.552       .  S
C3626      C3902   1.489       .  S
C3627      C3874   1.508       .  S
C3628      C3888   1.475       .  S
O3629      C3637   1.270       .  A
O3629     Co3649   2.008       .  S
O3630      C3638   1.280       .  A
O3630     Co3650   1.893       .  S
O3631      C3639   1.249       .  A
O3632      C3640   1.270       .  A
O3632     Co3652   2.016       .  S
O3633      C3639   1.289       .  A
O3633     Co3650   2.074       .  S
O3634      C3640   1.278       .  A
O3634     Co3649   1.995       .  S
O3635      C3638   1.305       .  A
O3636      C3637   1.275       .  A
O3636     Co3651   2.030       .  S
C3637      C3846   1.505       .  S
C3638      C3801   1.473       .  S
C3639      C3818   1.525       .  S
C3640      C3832   1.503       .  S
O3641      C3654   1.260       .  A
O3641     Co3649   1.985       .  S
O3642      C3655   1.283       .  A
O3642     Co3650   2.012       .  S
O3643      C3656   1.280       .  A
O3643     Co3651   2.005       .  S
O3644      C3657   1.280       .  A
O3645      C3657   1.289       .  A
O3645     Co3650   2.122       .  S
O3646      C3656   1.277       .  A
O3646     Co3649   2.002       .  S
O3647      C3654   1.289       .  A
O3647     Co3652   2.047       .  S
O3648      C3655   1.293       .  A
Co3649     O3653   2.067       .  S
Co3651     O3653   2.097       .  S
Co3652     O3653   2.129       .  S
C3654      C3871   1.527       .  S
C3655      C3997   1.510       .  S
C3656      C4014   1.488       .  S
C3657      C3860   1.546       .  S
O3658      C3666   1.267       .  A
O3658     Co3678   1.972       .  S
O3659      C3667   1.305       .  A
O3660      C3668   1.286       .  A
O3660     Co3680   1.995       .  S
O3661      C3669   1.279       .  A
O3661     Co3681   1.976       .  S
O3662      C3668   1.277       .  A
O3662     Co3679   2.016       .  S
O3663      C3669   1.276       .  A
O3664      C3667   1.288       .  A
O3664     Co3681   2.007       .  S
O3665      C3666   1.282       .  A
O3665     Co3680   1.992       .  S
C3666      C3787   1.503       .  S
C3667      C3745   1.497       .  S
C3668      C3773   1.513       .  S
C3669      C3762   1.499       .  S
O3670      C3683   1.300       .  A
O3671      C3684   1.300       .  A
O3671     Co3679   2.027       .  S
O3672      C3685   1.269       .  A
O3672     Co3680   1.966       .  S
O3673      C3686   1.263       .  A
O3673     Co3681   1.937       .  S
O3674      C3686   1.281       .  A
O3675      C3685   1.305       .  A
O3675     Co3678   2.067       .  S
O3676      C3683   1.274       .  A
O3676     Co3681   2.012       .  S
O3677      C3684   1.276       .  A
O3677     Co3680   1.982       .  S
Co3678     O3682   2.005       .  S
Co3679     O3682   1.947       .  S
Co3680     O3682   1.889       .  S
C3683      C3969   1.535       .  S
C3684      C3899   1.509       .  S
C3685      C3986   1.542       .  S
C3686      C3885   1.482       .  S
O3687      C3695   1.283       .  A
O3687     Co3707   2.050       .  S
O3688      C3696   1.297       .  A
O3688     Co3708   2.038       .  S
O3689      C3697   1.262       .  A
O3690      C3698   1.236       .  A
O3691      C3697   1.296       .  A
O3691     Co3708   2.053       .  S
O3692      C3698   1.277       .  A
O3692     Co3707   2.048       .  S
O3693      C3696   1.281       .  A
O3693     Co3710   2.009       .  S
O3694      C3695   1.267       .  A
O3694     Co3709   1.972       .  S
C3695      C4070   1.500       .  S
C3696      C3941   1.521       .  S
C3697      C3958   1.518       .  S
C3698      C4056   1.486       .  S
O3699      C3712   1.295       .  A
O3699     Co3707   2.030       .  S
O3700      C3713   1.273       .  A
O3700     Co3708   2.015       .  S
O3701      C3714   1.292       .  A
O3701     Co3709   2.030       .  S
O3702      C3715   1.286       .  A
O3702     Co3710   2.018       .  S
O3703      C3715   1.265       .  A
O3703     Co3708   1.968       .  S
O3704      C3714   1.313       .  A
O3704     Co3707   2.114       .  S
O3705      C3712   1.306       .  A
O3706      C3713   1.292       .  A
Co3708     O3711   2.059       .  S
Co3710     O3711   2.056       .  S
C3712      C3790   1.508       .  S
C3713      C3829   1.514       .  S
C3714      C3843   1.523       .  S
C3715      C3776   1.504       .  S
O3716      C3724   1.279       .  A
O3716     Co3736   2.015       .  S
O3717      C3725   1.266       .  A
O3718      C3726   1.287       .  A
O3718     Co3738   2.001       .  S
O3719      C3727   1.294       .  A
O3719     Co3739   2.036       .  S
O3720      C3726   1.271       .  A
O3720     Co3737   1.992       .  S
O3721      C3727   1.263       .  A
O3722      C3725   1.281       .  A
O3722     Co3739   2.004       .  S
O3723      C3724   1.293       .  A
O3723     Co3738   2.012       .  S
C3724      C4039   1.497       .  S
C3725      C3913   1.493       .  S
C3726      C4028   1.505       .  S
C3727      C3927   1.514       .  S
O3728      C3741   1.295       .  A
O3729      C3742   1.288       .  A
O3729     Co3737   2.005       .  S
O3730      C3743   1.278       .  A
O3730     Co3738   2.005       .  S
O3731      C3744   1.278       .  A
O3731     Co3739   2.013       .  S
O3732      C3744   1.286       .  A
O3733      C3743   1.301       .  A
O3733     Co3736   2.055       .  S
O3734      C3741   1.264       .  A
O3734     Co3739   1.973       .  S
O3735      C3742   1.268       .  A
O3735     Co3738   1.973       .  S
Co3736     O3740   1.949       .  S
Co3737     O3740   2.026       .  S
Co3738     O3740   1.932       .  S
C3741      C3804   1.500       .  S
C3742      C3759   1.507       .  S
C3743      C3815   1.528       .  S
C3744      C3748   1.491       .  S
C3745      C3746   1.406       .  A
C3745      C3750   1.414       .  A
C3746      C3747   1.417       .  A
C3746      C3751   1.432       .  S
C3747      C3748   1.395       .  A
C3747      C3754   1.434       .  S
C3748      C3749   1.408       .  A
C3749      C3750   1.411       .  A
C3749      C3752   1.440       .  S
C3750      C3753   1.451       .  S
C3751      N3758   1.154       .  T
C3752      N3757   1.153       .  T
C3753      N3755   1.157       .  T
C3754      N3756   1.156       .  T
C3759      C3760   1.406       .  A
C3759      C3764   1.440       .  A
C3760      C3761   1.406       .  A
C3760      C3765   1.451       .  S
C3761      C3762   1.425       .  A
C3761      C3768   1.444       .  S
C3762      C3763   1.408       .  A
C3763      C3764   1.413       .  A
C3763      C3766   1.454       .  S
C3764      C3767   1.455       .  S
C3765      N3772   1.157       .  T
C3766      N3771   1.157       .  T
C3767      N3769   1.159       .  T
C3773      C3774   1.432       .  A
C3773      C3778   1.413       .  A
C3774      C3775   1.422       .  A
C3774      C3779   1.450       .  S
C3775      C3776   1.413       .  A
C3775      C3782   1.454       .  S
C3776      C3777   1.428       .  A
C3777      C3778   1.405       .  A
C3777      C3780   1.451       .  S
C3778      C3781   1.455       .  S
C3779      N3786   1.158       .  T
C3780      N3785   1.156       .  T
C3781      N3783   1.157       .  T
C3782      N3784   1.158       .  T
C3787      C3788   1.403       .  A
C3787      C3792   1.430       .  A
C3788      C3789   1.411       .  A
C3788      C3793   1.452       .  S
C3789      C3790   1.440       .  A
C3789      C3796   1.447       .  S
C3790      C3791   1.406       .  A
C3791      C3792   1.409       .  A
C3791      C3794   1.451       .  S
C3792      C3795   1.453       .  S
C3793      N3800   1.157       .  T
C3794      N3799   1.157       .  T
C3795      N3797   1.158       .  T
C3796      N3798   1.157       .  T
C3801      C3802   1.396       .  A
C3801      C3806   1.391       .  A
C3802      C3803   1.414       .  A
C3802      C3807   1.448       .  S
C3803      C3804   1.436       .  A
C3803      C3810   1.444       .  S
C3804      C3805   1.395       .  A
C3805      C3806   1.405       .  A
C3805      C3808   1.430       .  S
C3806      C3809   1.434       .  S
C3807      N3814   1.157       .  T
C3810      N3812   1.155       .  T
C3815      C3816   1.438       .  A
C3815      C3820   1.407       .  A
C3816      C3817   1.423       .  A
C3816      C3821   1.448       .  S
C3817      C3818   1.408       .  A
C3817      C3824   1.452       .  S
C3818      C3819   1.441       .  A
C3819      C3820   1.418       .  A
C3819      C3822   1.454       .  S
C3820      C3823   1.452       .  S
C3821      N3828   1.156       .  T
C3822      N3827   1.157   1_565  T
C3823      N3825   1.158       .  T
C3824      N3826   1.158       .  T
C3829      C3830   1.399       .  A
C3829      C3834   1.437       .  A
C3830      C3831   1.393       .  A
C3830      C3835   1.441       .  S
C3831      C3832   1.403       .  A
C3831      C3838   1.433       .  S
C3832      C3833   1.414       .  A
C3833      C3834   1.431       .  A
C3833      C3836   1.445       .  S
C3834      C3837   1.448       .  S
C3836      N3841   1.157       .  T
C3837      N3839   1.157       .  T
C3843      C3844   1.427       .  A
C3843      C3848   1.420       .  A
C3844      C3845   1.416       .  A
C3844      C3849   1.443       .  S
C3845      C3846   1.402       .  A
C3845      C3852   1.450       .  S
C3846      C3847   1.409       .  A
C3847      C3848   1.425       .  A
C3847      C3850   1.445       .  S
C3848      C3851   1.446       .  S
C3849      N3856   1.155       .  T
C3851      N3853   1.157       .  T
C3852      N3854   1.156       .  T
C3857      C3858   1.442       .  A
C3857      C3862   1.408       .  A
C3858      C3859   1.432       .  A
C3858      C3863   1.450       .  S
C3859      C3860   1.413       .  A
C3859      C3866   1.450       .  S
C3860      C3861   1.420       .  A
C3861      C3862   1.430       .  A
C3861      C3864   1.435       .  S
C3862      C3865   1.443       .  S
C3863      N3870   1.157       .  T
C3864      N3869   1.156       .  T
C3865      N3867   1.156       .  T
C3866      N3868   1.157       .  T
C3871      C3872   1.440       .  A
C3871      C3876   1.410       .  A
C3872      C3873   1.418       .  A
C3872      C3877   1.446       .  S
C3873      C3874   1.403       .  A
C3873      C3880   1.452       .  S
C3874      C3875   1.412       .  A
C3875      C3876   1.416       .  A
C3875      C3878   1.438       .  S
C3876      C3879   1.447       .  S
C3877      N3884   1.155       .  T
C3879      N3881   1.157       .  T
C3880      N3882   1.157       .  T
C3885      C3886   1.413       .  A
C3885      C3890   1.418       .  A
C3886      C3887   1.407       .  A
C3886      C3891   1.447       .  S
C3887      C3888   1.396       .  A
C3887      C3894   1.439       .  S
C3888      C3889   1.405       .  A
C3889      C3890   1.404       .  A
C3889      C3892   1.444       .  S
C3890      C3893   1.453       .  S
C3891      N3898   1.157       .  T
C3892      N3897   1.155       .  T
C3893      N3895   1.158       .  T
C3899      C3900   1.408       .  A
C3899      C3904   1.434       .  A
C3900      C3901   1.408       .  A
C3900      C3905   1.449       .  S
C3901      C3902   1.425       .  A
C3901      C3908   1.452       .  S
C3902      C3903   1.407       .  A
C3903      C3904   1.413       .  A
C3903      C3906   1.454       .  S
C3904      C3907   1.450       .  S
C3905      N3912   1.158       .  T
C3906      N3911   1.159       .  T
C3907      N3909   1.156       .  T
C3913      C3914   1.428       .  A
C3913      C3918   1.408       .  A
C3914      C3915   1.411       .  A
C3914      C3919   1.451       .  S
C3915      C3916   1.406       .  A
C3915      C3922   1.453       .  S
C3916      C3917   1.430       .  A
C3917      C3918   1.408       .  A
C3917      C3920   1.453       .  S
C3918      C3921   1.455       .  S
C3919      N3926   1.157   1_655  T
C3920      N3925   1.158       .  T
C3921      N3923   1.157       .  T
C3922      N3924   1.157       .  T
C3927      C3928   1.404       .  A
C3927      C3932   1.438       .  A
C3928      C3929   1.418       .  A
C3928      C3933   1.452       .  S
C3929      C3930   1.437       .  A
C3929      C3936   1.449       .  S
C3930      C3931   1.399       .  A
C3931      C3932   1.407       .  A
C3931      C3934   1.452       .  S
C3932      C3935   1.455       .  S
C3933      N3940   1.158       .  T
C3934      N3939   1.157       .  T
C3935      N3937   1.158       .  T
C3936      N3938   1.157       .  T
C3941      C3942   1.424       .  A
C3941      C3946   1.418       .  A
C3942      C3943   1.406       .  A
C3942      C3947   1.447       .  S
C3943      C3944   1.395       .  A
C3943      C3950   1.443       .  S
C3944      C3945   1.405       .  A
C3945      C3946   1.433       .  A
C3945      C3948   1.442       .  S
C3946      C3949   1.440       .  S
C3947      N3954   1.155       .  T
C3948      N3953   1.157       .  T
C3949      N3951   1.155       .  T
C3950      N3952   1.155       .  T
C3955      C3956   1.398       .  A
C3955      C3960   1.421       .  A
C3956      C3957   1.401       .  A
C3956      C3961   1.455       .  S
C3957      C3958   1.437       .  A
C3957      C3964   1.447       .  S
C3958      C3959   1.413       .  A
C3959      C3960   1.428       .  A
C3959      C3962   1.443       .  S
C3960      C3963   1.447       .  S
C3961      N3968   1.157       .  T
C3962      N3967   1.157       .  T
C3963      N3965   1.157       .  T
C3964      N3966   1.156       .  T
C3969      C3970   1.407       .  A
C3969      C3974   1.444       .  A
C3970      C3971   1.419       .  A
C3970      C3975   1.455       .  S
C3971      C3972   1.434       .  A
C3971      C3978   1.439       .  S
C3972      C3973   1.405       .  A
C3973      C3974   1.426       .  A
C3973      C3976   1.453       .  S
C3974      C3977   1.448       .  S
C3975      N3982   1.156       .  T
C3976      N3981   1.156       .  T
C3977      N3979   1.158       .  T
C3978      N3980   1.155       .  T
C3983      C3984   1.409       .  A
C3983      C3988   1.447       .  A
C3984      C3985   1.418       .  A
C3984      C3989   1.449       .  S
C3985      C3986   1.438       .  A
C3985      C3992   1.452       .  S
C3986      C3987   1.410       .  A
C3987      C3988   1.433       .  A
C3987      C3990   1.452       .  S
C3988      C3991   1.449       .  S
C3989      N3996   1.158       .  T
C3990      N3995   1.158       .  T
C3991      N3993   1.157   1_556  T
C3992      N3994   1.157       .  T
C3997      C3998   1.405       .  A
C3997      C4002   1.445       .  A
C3998      C3999   1.413       .  A
C3998      C4003   1.451       .  S
C3999      C4000   1.430       .  A
C3999      C4006   1.450       .  S
C4000      C4001   1.402       .  A
C4001      C4002   1.415       .  A
C4001      C4004   1.452       .  S
C4002      C4005   1.450       .  S
C4003      N4010   1.157       .  T
C4004      N4009   1.158       .  T
C4005      N4007   1.157       .  T
C4006      N4008   1.157       .  T
C4011      C4012   1.402       .  A
C4011      C4016   1.407       .  A
C4012      C4013   1.395       .  A
C4012      C4017   1.438       .  S
C4013      C4014   1.402       .  A
C4013      C4020   1.449       .  S
C4014      C4015   1.411       .  A
C4015      C4016   1.428       .  A
C4015      C4018   1.438       .  S
C4016      C4019   1.443       .  S
C4017      N4024   1.153       .  T
C4018      N4023   1.156       .  T
C4019      N4021   1.157       .  T
C4020      N4022   1.157       .  T
C4025      C4026   1.406       .  A
C4025      C4030   1.399       .  A
C4026      C4027   1.414       .  A
C4026      C4031   1.425       .  S
C4027      C4028   1.404       .  A
C4027      C4034   1.446       .  S
C4028      C4029   1.429       .  A
C4029      C4030   1.409       .  A
C4029      C4032   1.454       .  S
C4030      C4033   1.446       .  S
C4031      N4038   1.151       .  T
C4032      N4037   1.156       .  T
C4033      N4035   1.156       .  T
C4034      N4036   1.158       .  T
C4039      C4040   1.441       .  A
C4039      C4044   1.401       .  A
C4040      C4041   1.432       .  A
C4040      C4045   1.448       .  S
C4041      C4042   1.410       .  A
C4041      C4048   1.447       .  S
C4042      C4043   1.415       .  A
C4043      C4044   1.379       .  A
C4043      C4046   1.449       .  S
C4044      C4047   1.451       .  S
C4046      N4051   1.154       .  T
C4047      N4049   1.157       .  T
C4048      N4050   1.157       .  T
C4053      C4054   1.441       .  A
C4053      C4058   1.411       .  A
C4054      C4055   1.411       .  A
C4054      C4059   1.448       .  S
C4055      C4056   1.398       .  A
C4055      C4062   1.455       .  S
C4056      C4057   1.428       .  A
C4057      C4058   1.415       .  A
C4057      C4060   1.452       .  S
C4058      C4061   1.451       .  S
C4059      N4066   1.157       .  T
C4061      N4063   1.157       .  T
C4062      N4064   1.157       .  T
C4067      C4068   1.421       .  A
C4067      C4072   1.414       .  A
C4068      C4069   1.400       .  A
C4068      C4073   1.447       .  S
C4069      C4070   1.414       .  A
C4069      C4076   1.456       .  S
C4070      C4071   1.425       .  A
C4071      C4072   1.417       .  A
C4071      C4074   1.452       .  S
C4072      C4075   1.451       .  S
C4073      N4080   1.155       .  T
C4074      N4079   1.157       .  T
C4075      N4077   1.158       .  T
C4076      N4078   1.158       .  T
