geometry optimzed in LAMMPS
_audit_creation_date              2020-11-30 
_audit_creation_method            'lammps2cif' 
_symmetry_space_group_name_H-M    'P1' 
_symmetry_Int_Tables_number       1 
_symmetry_cell_setting            triclinic 
loop_ 
_symmetry_equiv_pos_as_xyz 
  x,y,z 
_cell_length_a                    29.16811717 
_cell_length_b                    26.62861444320866 
_cell_length_c                    28.844959767635206 
_cell_angle_alpha                 89.43423204481127 
_cell_angle_beta                  89.87084008621079 
_cell_angle_gamma                 89.59232756087006 
loop_ 
_atom_site_label 
_atom_site_type_symbol 
_atom_site_fract_x 
_atom_site_fract_y 
_atom_site_fract_z 
_atom_site_charge 
C1          C  0.12901379  0.10315792  0.11196453     0.45100
H2          H  0.10875478  0.07583269  0.09170250    -0.04000
C3          C  0.17548013  0.16661118  0.15941093     0.45100
H4          H  0.19695633  0.19359245  0.17803513    -0.04000
C5          C  0.10120562  0.15176496  0.12179083    -0.17700
C6          C  0.14483546  0.08169150  0.15999312    -0.17400
C7          C  0.17286608  0.11930555  0.08612656    -0.17800
C8          C  0.12452163  0.18543768  0.14984969    -0.17800
C9          C  0.17027544  0.11510158  0.18563801    -0.17300
C10         C  0.19779352  0.15374361  0.11096050    -0.17700
C11         C  0.91415971  0.60019202  0.43147718     0.45100
H12         H  0.93247159  0.57118128  0.45231592    -0.04000
C13         C  0.86810582  0.66553080  0.38283249     0.45100
H14         H  0.84863641  0.69339305  0.36167256    -0.04000
C15         C  0.89581389  0.57776797  0.38499135    -0.17700
C16         C  0.87097922  0.62207731  0.45771172    -0.17400
C17         C  0.94503132  0.64601649  0.41698497    -0.17800
C18         C  0.86984512  0.61196811  0.35967599    -0.17800
C19         C  0.84636867  0.65730027  0.43195728    -0.17300
C20         C  0.91965880  0.68152263  0.39174789    -0.17700
C21         C  0.95507920  0.22725492  0.99345146     0.86100
C22         C  0.97408092  0.27818116  0.97629199    -0.54200
C23         C  0.95035456  0.29961874  0.94062524     0.09000
C24         C  0.90899834  0.26997272  0.92594514     0.20000
C25         C  0.90358646  0.24058561  0.00617133    -0.54900
C26         C  0.87908207  0.26325477  0.96971606     0.09100
C27         C  0.94985826  0.19478527  0.94975353    -0.54400
C28         C  0.92721640  0.21796897  0.91445490     0.10500
H29         H  0.00617718  0.29369459  0.98851398     0.14200
H30         H  0.89247607  0.28839181  0.89559433    -0.00100
H31         H  0.88828210  0.23177078  0.03944033     0.14500
H32         H  0.96599805  0.15817376  0.94580206     0.14300
C33         C  0.76565441  0.52481124  0.61086329     0.86100
C34         C  0.71634234  0.54411356  0.60672954    -0.54200
C35         C  0.68424194  0.51547519  0.62843215     0.09000
C36         C  0.70465536  0.47024455  0.65460166     0.20000
C37         C  0.77302901  0.52127468  0.66547620    -0.54900
C38         C  0.74008045  0.49117331  0.68806889     0.09100
C39         C  0.76515849  0.46936649  0.59788118    -0.54400
C40         C  0.73384873  0.44112759  0.62002849     0.09700
H41         H  0.70729917  0.57469521  0.58319759     0.14200
H42         H  0.67824482  0.44678698  0.67192430    -0.00100
H43         H  0.80238947  0.53679221  0.68315371     0.14500
H44         H  0.79020693  0.45275948  0.57449788     0.14300
C45         C  0.50383914  0.08993393  0.74843011     0.86100
C46         C  0.51134330  0.04624005  0.78215331    -0.54200
C47         C  0.55027929  0.04777594  0.80755962     0.09000
C48         C  0.58037884  0.09430386  0.79671975     0.20000
C49         C  0.50885651  0.13834296  0.77904856    -0.54900
C50         C  0.54950072  0.14121818  0.80476585     0.09100
C51         C  0.54779130  0.08967614  0.71952604    -0.54400
C52         C  0.58734162  0.09358647  0.74389551     0.09700
H53         H  0.48736450  0.01552855  0.78570234     0.14200
H54         H  0.61336762  0.09452601  0.81548848    -0.00100
H55         H  0.48338194  0.16818417  0.77864427     0.14500
H56         H  0.54897060  0.08399616  0.68253588     0.14300
Zr57       Zr  0.92973315  0.07897320  0.50097094     2.17500
O58         O  0.96257984  0.06703169  0.42386305    -0.51700
O59         O  0.96947481  0.99978696  0.50065981    -0.74900
O60         O  0.00051002  0.12353791  0.48845932    -0.81700
O61         O  0.82419496  0.00148455  0.46922248    -0.83500
O62         O  0.02151221  0.15516376  0.55788297    -0.79100
O63         O  0.86495185  0.06744850  0.45029522    -0.90700
O64         O  0.96914442  0.96984209  0.57461847    -0.76700
O65         O  0.96020175  0.07755358  0.57735794    -0.86200
O66         O  0.88539551  0.01844941  0.54305702    -0.85900
O67         O  0.92414161  0.16389601  0.52787506    -0.72600
O68         O  0.85190255  0.10724117  0.49454584    -0.84800
Zr69       Zr  0.83070766  0.12892543  0.64244102     2.26400
Zr70       Zr  0.95204651  0.16114966  0.60611502     2.06300
Zr71       Zr  0.80686070  0.04740577  0.53818080     2.10000
Zr72       Zr  0.91582090  0.01805204  0.61904502     1.78800
O73         O  0.74831508  0.07054346  0.48161922    -0.93600
O74         O  0.98600234  0.01502053  0.66476739    -0.41400
O75         O  0.83754438  0.04447973  0.61525333    -0.78000
O76         O  0.90887253  0.10002233  0.64887019    -0.96700
O77         O  0.87449919  0.19012742  0.60113356    -0.90000
O78         O  0.79938724  0.13145695  0.56603745    -0.92900
C79         C  0.98156676  0.96858914  0.53221959     1.00900
C80         C  0.85159944  0.02313186  0.44146089     1.13800
C81         C  0.02996511  0.14318313  0.51547440     1.04600
O82         O  0.02494184  0.16260756  0.64697607    -0.95000
O83         O  0.94078466  0.18248745  0.68906736    -0.90700
O84         O  0.87005562  0.15616218  0.71039299    -0.83900
C85         C  0.90913776  0.17482596  0.71983365     1.11300
O86         O  0.87625805  0.22440788  0.45173789    -0.97000
Zr87       Zr  0.84533939  0.18998742  0.52377739     1.88900
O88         O  0.78539528  0.20489970  0.63573487    -0.73600
O89         O  0.96056568  0.25111302  0.59308069    -0.52900
O90         O  0.86241486  0.27920767  0.52887034    -0.97600
O91         O  0.78913058  0.19258241  0.46134529    -0.54800
O92         O  0.78228137  0.23161468  0.56077851    -0.74100
C93         C  0.77211171  0.23512302  0.60365608     0.98200
O94         O  0.77896245  0.13531233  0.70884464    -0.63000
O95         O  0.77391126  0.96384640  0.54612422    -0.57800
O96         O  0.78426669  0.05533203  0.65143815    -0.94500
O97         O  0.74091200  0.05259378  0.58884830    -0.92900
O98         O  0.88877949  0.93211926  0.62620841    -0.93200
O99         O  0.89815431  0.99453231  0.69887734    -0.92000
C100        C  0.74496314  0.05426232  0.63280428     1.17000
H101        H  0.88788641  0.98523942  0.53019514     0.33000
H102        H  0.92020354  0.09465549  0.67986499     0.43800
H103        H  0.76736595  0.14089785  0.56606907     0.37400
H104        H  0.94215598  0.18683604  0.50931912     0.33800
H105        H  0.99327776  0.97880157  0.66822360     0.25600
H106        H  0.96710898  0.26483657  0.62412943     0.31600
H107        H  0.86663133  0.28555270  0.56234753     0.37500
H108        H  0.85561486  0.93430275  0.61919076     0.31900
H109        H  0.76538324  0.96011404  0.57921096     0.30800
H110        H  0.72629384  0.09188819  0.49878741     0.32500
H111        H  0.75941428  0.18550628  0.47662114     0.31500
H112        H  0.87229513  0.01681192  0.70766782     0.35500
H113        H  0.79170061  0.11210585  0.73262671     0.28200
H114        H  0.99472433  0.05579507  0.42837054     0.32400
H115        H  0.89097322  0.19539285  0.43628337     0.35300
H116        H  0.74428248  0.96616387  0.52948399     0.27900
H117        H  0.78332820  0.16926643  0.72174792     0.40800
H118        H  0.02870318  0.12810292  0.65956784     0.30800
H119        H  0.01016526  0.02813272  0.64383339     0.38400
H120        H  0.79555447  0.16243561  0.44252588     0.30300
H121        H  0.98986677  0.25432792  0.57593440     0.30300
H122        H  0.96467782  0.10096368  0.40971668     0.30600
C123        C  0.67477296  0.34846122  0.88147374     0.45100
H124        H  0.69326766  0.32076804  0.86067052    -0.04000
C125        C  0.62591333  0.40980889  0.93065301     0.45100
H126        H  0.60472959  0.43570773  0.95186893    -0.04000
C127        C  0.66951461  0.40192443  0.85854450    -0.17700
C128        C  0.62529521  0.32821277  0.89108757    -0.17400
C129        C  0.69825708  0.35942316  0.92901266    -0.17800
C130        C  0.63916420  0.43252496  0.88211543    -0.17800
C131        C  0.60087737  0.35957709  0.91963481    -0.17300
C132        C  0.67260495  0.39420284  0.95469935    -0.17700
C133        C  0.25486002  0.98798740  0.94389068     0.86100
C134        C  0.29891692  0.99322956  0.97094064    -0.54200
C135        C  0.33427415  0.96478186  0.95668974     0.09000
C136        C  0.32339349  0.93152685  0.91558171     0.20000
C137        C  0.26986699  0.99836660  0.89215875    -0.54900
C138        C  0.30585942  0.96736743  0.87694192     0.09100
C139        C  0.24498295  0.93100664  0.94271865    -0.54400
C140        C  0.28142224  0.90144316  0.93045050     0.09700
H141        H  0.30103029  0.01565293  0.00223513     0.14200
H142        H  0.35282314  0.90741003  0.90649968    -0.00100
H143        H  0.25221435  0.02477706  0.86943953     0.14500
H144        H  0.21160390  0.91500444  0.94916135     0.14300
C145        C  0.54674641  0.60513070  0.78735793     0.86100
C146        C  0.54799474  0.59956649  0.73363718    -0.54200
C147        C  0.50909521  0.61405379  0.71174087     0.09000
C148        C  0.47494958  0.63996198  0.74321483     0.20000
C149        C  0.53962206  0.66405128  0.79148598    -0.54900
C150        C  0.50111531  0.68192569  0.76706062     0.09100
C151        C  0.50041343  0.58321353  0.80318059    -0.54400
C152        C  0.46368847  0.60155203  0.78020969     0.09700
H153        H  0.57696183  0.58518159  0.71413174     0.14200
H154        H  0.44381615  0.65309193  0.72459924    -0.00100
H155        H  0.56287569  0.68859146  0.80959611     0.14500
H156        H  0.49718547  0.55409816  0.82962811     0.14300
C157        C  0.11035566  0.72065483  0.49907759     0.86100
C158        C  0.10015119  0.77314816  0.47910087    -0.54200
C159        C  0.11118954  0.81206989  0.50681400     0.09000
C160        C  0.13572833  0.79609555  0.55156387     0.20000
C161        C  0.16380388  0.72321663  0.50881994    -0.54900
C162        C  0.17699064  0.76380024  0.53654089     0.09100
C163        C  0.08922315  0.72204396  0.54800487    -0.54400
C164        C  0.10237627  0.75995387  0.57585205     0.09700
H165        H  0.07843872  0.77966722  0.44912432     0.14200
H166        H  0.14556786  0.82895050  0.57265941    -0.00100
H167        H  0.18823976  0.69631254  0.49507717     0.14500
H168        H  0.06708076  0.69333766  0.56126457     0.14300
Zr169      Zr  0.17670340  0.64348706  0.84826481     2.17500
O170        O  0.17492677  0.73398930  0.83460847    -0.51700
O171        O  0.25153568  0.62664126  0.81482817    -0.74900
O172        O  0.23002696  0.69059380  0.89196548    -0.81700
O173        O  0.08581844  0.63542139  0.75930531    -0.83500
O174        O  0.23461749  0.66041096  0.96525667    -0.79100
O175        O  0.14911732  0.67957416  0.77750407    -0.90700
O176        O  0.25094456  0.54807419  0.78636932    -0.76700
O177        O  0.22177378  0.57873664  0.88246811    -0.86200
O178        O  0.16062858  0.57097754  0.80395356    -0.85900
O179        O  0.15134525  0.64346111  0.92739345    -0.72600
O180        O  0.09510689  0.63442928  0.85366145    -0.84800
Zr181      Zr  0.10038653  0.48969704  0.92509925     2.26400
Zr182      Zr  0.19742681  0.57733372  0.96131440     2.06300
Zr183      Zr  0.07948924  0.56075744  0.81012793     2.10000
Zr184      Zr  0.20321584  0.50463606  0.84063791     1.78800
O185        O  0.00179130  0.58311967  0.78577701    -0.93600
O186        O  0.28048886  0.48096049  0.86444626    -0.41400
O187        O  0.12296834  0.49324784  0.84548974    -0.78000
O188        O  0.18217300  0.50024353  0.92092695    -0.96700
O189        O  0.11635224  0.56434562  0.96667630    -0.90000
O190        O  0.05442787  0.55436571  0.88994501    -0.92900
C191        C  0.27077046  0.58934281  0.79467233     1.00900
C192        C  0.11377002  0.67222743  0.75267134     1.13800
C193        C  0.24374516  0.69340680  0.93370430     1.04600
O194        O  0.26880007  0.52922947  0.96273690    -0.95000
O195        O  0.15876109  0.53626956  0.02586265    -0.90700
O196        O  0.14297531  0.46355050  0.99241821    -0.83900
C197        C  0.14206164  0.49189214  0.02760264     1.11300
O198        O  0.06334158  0.71839406  0.92369382    -0.97000
Zr199      Zr  0.07062266  0.62769078  0.93266840     1.88900
O200        O  0.03159749  0.49581216  0.97113994    -0.73600
O201        O  0.23227310  0.59159746  0.03685502    -0.52900
O202        O  0.07391205  0.66957896  0.00724429    -0.97600
O203        O  0.99265145  0.65119488  0.91083545    -0.54800
O204        O  0.02398809  0.57853506  0.98620282    -0.74100
C205        C  0.01339097  0.53225748  0.99316242     0.98200
O206        O  0.08186618  0.40443819  0.94913087    -0.63000
O207        O  0.09635858  0.52059951  0.73638875    -0.57800
O208        O  0.08114482  0.44739202  0.85414445    -0.94500
O209        O  0.02722316  0.48968950  0.81675476    -0.92900
O210        O  0.19523843  0.45603961  0.77001708    -0.93200
O211        O  0.21239676  0.41400082  0.85007878    -0.92000
C212        C  0.04078769  0.44966357  0.83744642     1.17000
H213        H  0.16953959  0.57579496  0.77197542     0.33000
H214        H  0.19908600  0.47250999  0.93457296     0.43800
H215        H  0.02222272  0.54618795  0.89154726     0.37400
H216        H  0.15595883  0.67563459  0.94168165     0.33800
H217        H  0.29590864  0.47033130  0.83550748     0.25600
H218        H  0.26405793  0.60256930  0.03046533     0.31600
H219        H  0.10553578  0.66346353  0.01846619     0.37500
H220        H  0.22708073  0.44799881  0.76049144     0.31900
H221        H  0.06605050  0.51606440  0.72170158     0.30800
H222        H  0.00364481  0.61611704  0.76985102     0.32500
H223        H  0.97631857  0.61913621  0.90653053     0.31500
H224        H  0.19494715  0.40520242  0.87845246     0.35500
H225        H  0.09661469  0.38245372  0.92595537     0.28200
H226        H  0.20667442  0.74415688  0.82685162     0.32400
H227        H  0.08572264  0.72724523  0.89913054     0.35300
H228        H  0.11135480  0.54686144  0.71726126     0.27900
H229        H  0.04855716  0.40112116  0.94400371     0.40800
H230        H  0.26471743  0.50437115  0.98814845     0.30800
H231        H  0.29544498  0.51294009  0.87248916     0.38400
H232        H  0.99551344  0.66553730  0.87917004     0.30300
H233        H  0.21652060  0.62169584  0.04923231     0.30300
H234        H  0.16806675  0.74968560  0.86485082     0.30600
C235        C  0.40497560  0.33447778  0.08757089     0.86100
C236        C  0.35870544  0.31010205  0.08128980    -0.54200
C237        C  0.35851174  0.26936590  0.05320623     0.09000
C238        C  0.40791782  0.25629820  0.03421854     0.20000
C239        C  0.43453608  0.29032453  0.10644503    -0.54900
C240        C  0.43609691  0.24868538  0.07893546     0.09100
C241        C  0.42311999  0.34600288  0.03954994    -0.54400
C242        C  0.42877481  0.30570097  0.01181231     0.09700
H243        H  0.32992064  0.31841494  0.10378546     0.14200
H244        H  0.40669082  0.22422909  0.01036062    -0.00100
H245        H  0.45285149  0.29217849  0.13911295     0.14500
H246        H  0.43867649  0.38213694  0.03154681     0.14300
C247        C  0.27557423  0.04404296  0.44963196     0.86100
C248        C  0.22626833  0.05869669  0.46478698    -0.54200
C249        C  0.20895047  0.10143769  0.44533005     0.09000
C250        C  0.23952044  0.12352305  0.40739388     0.20000
C251        C  0.26883610  0.03809118  0.39575157    -0.54900
C252        C  0.24914159  0.07991234  0.37370550     0.09100
C253        C  0.30314284  0.09274730  0.45437921    -0.54400
C254        C  0.28486481  0.13369074  0.43230491     0.09700
H255        H  0.20483950  0.03683154  0.48794188     0.14200
H256        H  0.22447016  0.15745496  0.39042239    -0.00100
H257        H  0.27563832  0.00339725  0.37757686     0.14500
H258        H  0.33325493  0.09519658  0.47627172     0.14300
C259        C  0.00771949  0.43762744  0.27049228     0.86100
C260        C  0.01162623  0.46041645  0.22098133    -0.54200
C261        C  0.04561361  0.44002145  0.19425880     0.09000
C262        C  0.07188526  0.39777649  0.21902477     0.20000
C263        C  0.00055660  0.38011367  0.26060697    -0.54900
C264        C  0.03526736  0.35994703  0.23286356     0.09100
C265        C  0.05610744  0.43786978  0.29161932    -0.54400
C266        C  0.08928518  0.41917830  0.26397544     0.09700
H267        H  0.98830722  0.48937050  0.20874521     0.14200
H268        H  0.10067809  0.38114551  0.19898589    -0.00100
H269        H  0.97257547  0.35793319  0.27445409     0.14500
H270        H  0.06392456  0.45423923  0.32503954     0.14300
Zr271      Zr  0.38291495  0.42361090  0.35062006     2.17500
O272        O  0.40799061  0.34647361  0.31285477    -0.51700
O273        O  0.30398528  0.42005998  0.32734653    -0.74900
O274        O  0.35414073  0.35083169  0.39170967    -0.81700
O275        O  0.43737613  0.49949648  0.25043419    -0.83500
O276        O  0.34700616  0.36892227  0.46836047    -0.79100
O277        O  0.39469165  0.43036432  0.26823586    -0.90700
O278        O  0.27414411  0.49792335  0.33980088    -0.76700
O279        O  0.33562920  0.46349411  0.40666092    -0.86200
O280        O  0.37479699  0.50867716  0.32545166    -0.85900
O281        O  0.42290552  0.41164656  0.42221008    -0.72600
O282        O  0.45918039  0.45577967  0.34383485    -0.84800
Zr283      Zr  0.44494711  0.57126970  0.44774417     2.26400
Zr284      Zr  0.37592467  0.45465335  0.47816641     2.06300
Zr285      Zr  0.45048906  0.54246005  0.32173795     2.10000
Zr286      Zr  0.32857971  0.54850421  0.38131605     1.78800
O287        O  0.51938030  0.53679755  0.27424660    -0.93600
O288        O  0.25693708  0.55015636  0.42505271    -0.41400
O289        O  0.40375039  0.58467609  0.37728079    -0.78000
O290        O  0.36701801  0.54087546  0.45373660    -0.96700
O291        O  0.45192881  0.48602670  0.47173926    -0.90000
O292        O  0.49225915  0.53051867  0.39214683    -0.92900
C293        C  0.27157414  0.45253522  0.32576691     1.00900
C294        C  0.41549239  0.45982942  0.23991974     1.13800
C295        C  0.34385317  0.33911141  0.43364843     1.04600
O296        O  0.29973077  0.47260032  0.50861982    -0.95000
O297        O  0.40672033  0.49789992  0.54582066    -0.90700
O298        O  0.40884439  0.57783723  0.52124311    -0.83900
C299        C  0.41388520  0.54481834  0.55275815     1.11300
O300        O  0.52275641  0.37161201  0.37282006    -0.97000
Zr301      Zr  0.49800118  0.44516310  0.41606634     1.88900
O302        O  0.50881724  0.55508895  0.49980133    -0.73600
O303        O  0.39010515  0.40487032  0.54818025    -0.52900
O304        O  0.51097803  0.37269650  0.46666982    -0.97600
O305        O  0.57732194  0.45658175  0.39133807    -0.54800
O306        O  0.53543960  0.47715579  0.48365905    -0.74100
C307        C  0.53427294  0.51668790  0.50842690     0.98200
O308        O  0.44385319  0.65782971  0.47447784    -0.63000
O309        O  0.41635569  0.60939431  0.27478103    -0.57800
O310        O  0.48954486  0.63505305  0.40837163    -0.94500
O311        O  0.49795279  0.61577429  0.33219096    -0.92900
O312        O  0.30757710  0.59805264  0.31310602    -0.93200
O313        O  0.30999246  0.63429348  0.40348453    -0.92000
C314        C  0.50570769  0.64300105  0.36759915     1.17000
H315        H  0.35931874  0.51149447  0.29593237     0.33000
H316        H  0.34781377  0.55867030  0.47548288     0.43800
H317        H  0.52251024  0.54485652  0.39062955     0.37400
H318        H  0.42652665  0.37646730  0.42989589     0.33800
H319        H  0.25273415  0.51512580  0.43597454     0.25600
H320        H  0.35938087  0.39601273  0.56025034     0.31600
H321        H  0.48629443  0.37454431  0.49023375     0.37500
H322        H  0.27375952  0.59568455  0.31137445     0.31900
H323        H  0.43999010  0.61744068  0.25121388     0.30800
H324        H  0.54410491  0.52793673  0.29637117     0.32500
H325        H  0.58932043  0.48414394  0.41052764     0.31500
H326        H  0.32995292  0.64088008  0.43044474     0.35500
H327        H  0.41174680  0.66492801  0.48367597     0.28200
H328        H  0.38158611  0.32332193  0.31379480     0.32400
H329        H  0.53071484  0.38452564  0.34153671     0.35300
H330        H  0.39164855  0.59298833  0.25712491     0.27900
H331        H  0.46144098  0.65719697  0.50381006     0.40800
H332        H  0.28550296  0.43920539  0.51278806     0.30800
H333        H  0.26352938  0.56917922  0.45355331     0.38400
H334        H  0.57525243  0.47110319  0.35969655     0.30300
H335        H  0.40361854  0.37277776  0.53750804     0.30300
H336        H  0.43081738  0.33137089  0.33429980     0.30600
C337        C  0.36605352  0.86261055  0.66670026     0.45100
H338        H  0.34754084  0.83926690  0.69115807    -0.04000
C339        C  0.40958625  0.92454622  0.61405824     0.45100
H340        H  0.42915346  0.94817517  0.58976130    -0.04000
C341        C  0.34383297  0.86585539  0.61581138    -0.17700
C342        C  0.36711061  0.91648173  0.68716105    -0.17400
C343        C  0.41835210  0.84839186  0.66265513    -0.17800
C344        C  0.36527335  0.90431303  0.59036742    -0.17800
C345        C  0.39162784  0.95078604  0.65984839    -0.17300
C346        C  0.44012224  0.87781088  0.62951528    -0.17700
C347        C  0.03363088  0.92639288  0.25308077     0.86100
C348        C  0.00735321  0.95874722  0.28846689    -0.54200
C349        C  0.96850285  0.93787735  0.30501782     0.09000
C350        C  0.95998094  0.88533499  0.28713984     0.20000
C351        C  0.04327654  0.87650938  0.28195573    -0.54900
C352        C  0.00273591  0.85520708  0.29963222     0.09100
C353        C  0.99945621  0.90762606  0.21682735    -0.54400
C354        C  0.96012403  0.88961682  0.23459182     0.09700
H355        H  0.01968307  0.99485134  0.30005435     0.14200
H356        H  0.92763610  0.86840807  0.30030480    -0.00100
H357        H  0.07685855  0.85935618  0.28607262     0.14500
H358        H  0.00302134  0.91570568  0.17995622     0.14300
C359        C  0.60934425  0.81730322  0.52204294     0.86100
C360        C  0.58311424  0.79663161  0.48036280    -0.54200
C361        C  0.60874782  0.78691640  0.44202345     0.09000
C362        C  0.65938005  0.79878942  0.44762020     0.20000
C363        C  0.64985103  0.77774335  0.52943793    -0.54900
C364        C  0.67634801  0.76845706  0.48975304     0.09100
C365        C  0.63487584  0.86345119  0.50122363    -0.54400
C366        C  0.65949249  0.85410123  0.46181808     0.09700
H367        H  0.54661971  0.78893308  0.48147239     0.14200
H368        H  0.67931157  0.79093111  0.41561831    -0.00100
H369        H  0.65723022  0.76014118  0.56268745     0.14500
H370        H  0.63265317  0.90108655  0.51424278     0.14300
C371        C  0.85037902  0.51862448  0.10756652     0.86100
C372        C  0.81607755  0.47772510  0.09526367    -0.54200
C373        C  0.77182163  0.48663857  0.10913756     0.09000
C374        C  0.76851745  0.53422543  0.14205638     0.20000
C375        C  0.82648197  0.56790800  0.09129876    -0.54900
C376        C  0.78439005  0.57678695  0.11015193     0.09100
C377        C  0.84915916  0.51877774  0.16024917    -0.54400
C378        C  0.80794238  0.53123199  0.17999849     0.09700
H379        H  0.82321554  0.44962914  0.06924481     0.14200
H380        H  0.73406634  0.54017827  0.15748545    -0.00100
H381        H  0.84246510  0.59481546  0.06789434     0.14500
H382        H  0.88048320  0.51613413  0.18044246     0.14300
Zr383      Zr  0.67905817  0.87881462  0.17998687     2.17500
O384        O  0.67801438  0.81309552  0.23945791    -0.51700
O385        O  0.75956385  0.89029921  0.17530990    -0.74900
O386        O  0.70561110  0.79939676  0.14960718    -0.81700
O387        O  0.65674071  0.97597366  0.27203437    -0.83500
O388        O  0.67643685  0.78959554  0.07738121    -0.79100
O389        O  0.69296354  0.90145608  0.25972200    -0.90700
O390        O  0.77761655  0.94726652  0.11896022    -0.76700
O391        O  0.69572206  0.89425054  0.10026122    -0.86200
O392        O  0.69137789  0.96701722  0.17369350    -0.85900
O393        O  0.61481117  0.84572401  0.13965211    -0.72600
O394        O  0.61053893  0.91772521  0.20802021    -0.84800
Zr395      Zr  0.57426480  0.99022532  0.08110043     2.26400
Zr396      Zr  0.63043697  0.86420366  0.05913095     2.06300
Zr397      Zr  0.62255494  0.00661172  0.19989887     2.10000
Zr398      Zr  0.70664628  0.98269656  0.09387816     1.78800
O399        O  0.58053009  0.03514766  0.26799890    -0.93600
O400        O  0.75332818  0.96892470  0.02483264    -0.41400
O401        O  0.63876169  0.02411421  0.11998758    -0.78000
O402        O  0.64313018  0.95273963  0.05146253    -0.96700
O403        O  0.56162487  0.90240502  0.08649198    -0.90000
O404        O  0.55665379  0.97488522  0.16098355    -0.92900
C405        C  0.78757795  0.91617217  0.15117906     1.00900
C406        C  0.67996684  0.93739460  0.28602520     1.13800
C407        C  0.70068108  0.77464199  0.11213119     1.04600
O408        O  0.67498607  0.83410856  0.99336061    -0.95000
O409        O  0.60063390  0.89550194  0.98419545    -0.90700
O410        O  0.56917188  0.97135829  0.00105845    -0.83900
C411        C  0.57937544  0.93640393  0.97291168     1.11300
O412        O  0.54318961  0.83739918  0.23826763    -0.97000
Zr413      Zr  0.54619561  0.88629576  0.16643790     1.88900
O414        O  0.49474893  0.98435983  0.10112856    -0.73600
O415        O  0.57252213  0.80116707  0.04350123    -0.52900
O416        O  0.51857857  0.80242563  0.14864348    -0.97600
O417        O  0.48465581  0.91186103  0.21869596    -0.54800
O418        O  0.48239018  0.90324807  0.11542903    -0.74100
C419        C  0.47131799  0.94475074  0.09585841     0.98200
O420        O  0.53894084  0.04277879  0.02155257    -0.63000
O421        O  0.67512965  0.07660938  0.20826421    -0.57800
O422        O  0.58808226  0.07494243  0.10434790    -0.94500
O423        O  0.56957545  0.07539023  0.17863828    -0.92900
O424        O  0.74834067  0.05121750  0.12937686    -0.93200
O425        O  0.70558821  0.05400322  0.04030799    -0.92000
C426        C  0.56549539  0.09397756  0.13768455     1.17000
H427        H  0.71674297  0.97758221  0.19259549     0.33000
H428        H  0.64961893  0.96243289  0.01987124     0.43800
H429        H  0.53001374  0.99236787  0.17270935     0.37400
H430        H  0.61289691  0.80997093  0.14493272     0.33800
H431        H  0.76749547  0.93535269  0.02943525     0.25600
H432        H  0.58789156  0.77730172  0.02232177     0.31600
H433        H  0.53794152  0.77877313  0.16680587     0.37500
H434        H  0.77851880  0.05133223  0.11358348     0.31900
H435        H  0.67055818  0.09720897  0.17985790     0.30800
H436        H  0.58542871  0.07187654  0.26907164     0.32500
H437        H  0.46480740  0.93485268  0.20036852     0.31500
H438        H  0.67283538  0.06364002  0.03771560     0.35500
H439        H  0.51414175  0.06158269  0.03724715     0.28200
H440        H  0.70856491  0.79668910  0.23824067     0.32400
H441        H  0.57523388  0.82645079  0.24381706     0.35300
H442        H  0.66177944  0.09717743  0.23337675     0.27900
H443        H  0.56232607  0.06779364  0.01247034     0.40800
H444        H  0.70731882  0.84058678  0.00164389     0.30800
H445        H  0.73116216  0.96412695  0.99935315     0.38400
H446        H  0.49967529  0.93381063  0.24155076     0.30300
H447        H  0.56924760  0.78214970  0.07294245     0.30300
H448        H  0.65644050  0.78760285  0.22785739     0.30600
C449        C  0.78711419  0.66769433  0.12537764    -0.20700
C450        C  0.76230269  0.62714920  0.10796594    -0.07300
C451        C  0.71771243  0.63556129  0.09038587     0.13600
C452        C  0.69901310  0.68438918  0.09109073    -0.20800
C453        C  0.72343897  0.72476334  0.10970370    -0.07300
C454        C  0.76825947  0.71617112  0.12709272     0.13600
C455        C  0.79689830  0.75771189  0.14703182    -0.24100
H456        H  0.82127622  0.66111700  0.13881508     0.14900
H457        H  0.66469363  0.69091566  0.07788415     0.14900
C458        C  0.69024871  0.59384098  0.06959254    -0.24100
H459        H  0.83199622  0.74449535  0.15612526     0.05100
H460        H  0.78099750  0.77195707  0.17934051     0.08300
H461        H  0.80019576  0.78880303  0.12135403     0.08300
H462        H  0.68465294  0.56347202  0.09548721     0.08300
H463        H  0.70875012  0.57881767  0.03909313     0.08300
H464        H  0.65604587  0.60719291  0.05767967     0.05100
C465        C  0.71495471  0.88175511  0.40252034    -0.20700
C466        C  0.67507997  0.89295837  0.42782818    -0.07300
C467        C  0.64510656  0.93094972  0.41062843     0.13600
C468        C  0.65204539  0.94996676  0.36571995    -0.20800
C469        C  0.68670492  0.93083072  0.33684832    -0.07300
C470        C  0.72071182  0.89890984  0.35672274     0.13600
C471        C  0.76226330  0.88107469  0.33013886    -0.24100
H472        H  0.73909336  0.85456656  0.41663510     0.14900
H473        H  0.62697061  0.97604943  0.35148671     0.14900
C474        C  0.60373210  0.94944614  0.43710423    -0.24100
H475        H  0.78610902  0.85909455  0.35262386     0.05100
H476        H  0.78142014  0.91383514  0.31649189     0.08300
H477        H  0.75226651  0.85615681  0.30140074     0.08300
H478        H  0.61490419  0.96812053  0.46931538     0.08300
H479        H  0.58033778  0.91802939  0.44546366     0.08300
H480        H  0.58362140  0.97764106  0.41689606     0.05100
C481        C  0.88471119  0.92755392  0.22975442    -0.20700
C482        C  0.91717532  0.89584028  0.20920993    -0.07300
C483        C  0.90822541  0.87420867  0.16556713     0.13600
C484        C  0.86585903  0.88390273  0.14474218    -0.20800
C485        C  0.83377483  0.91458703  0.16684600    -0.07300
C486        C  0.84344825  0.93793116  0.20890872     0.13600
C487        C  0.80989952  0.97299628  0.23252933    -0.24100
H488        H  0.89093878  0.94435701  0.26271722     0.14900
H489        H  0.85710377  0.86596216  0.11238325     0.14900
C490        C  0.94077021  0.83913465  0.14122861    -0.24100
H491        H  0.82407435  0.98873936  0.26498685     0.05100
H492        H  0.77814937  0.95262987  0.24180867     0.08300
H493        H  0.80132234  0.00486332  0.20894415     0.08300
H494        H  0.97311703  0.83283331  0.16033785     0.08300
H495        H  0.94936958  0.85479963  0.10649599     0.08300
H496        H  0.92406468  0.80213428  0.13680266     0.05100
C497        C  0.49562962  0.81224904  0.59614478    -0.20700
C498        C  0.48675564  0.86307483  0.60714878    -0.07300
C499        C  0.52366018  0.89678994  0.59889837     0.13600
C500        C  0.56462280  0.88025325  0.57643788    -0.20800
C501        C  0.57214792  0.83007362  0.56125802    -0.07300
C502        C  0.53743811  0.79529026  0.57553036     0.13600
C503        C  0.54241999  0.73943843  0.56907727    -0.24100
H504        H  0.46937072  0.78478079  0.60385304     0.14900
H505        H  0.59089227  0.90802251  0.57185619     0.14900
C506        C  0.52316874  0.94987948  0.61640809    -0.24100
H507        H  0.57594298  0.72833972  0.55436698     0.05100
H508        H  0.51497751  0.72587029  0.54581899     0.08300
H509        H  0.53900337  0.72019108  0.60325217     0.08300
H510        H  0.49269720  0.95844497  0.63768357     0.08300
H511        H  0.52499363  0.97657723  0.58671104     0.08300
H512        H  0.55343147  0.95573640  0.63898365     0.05100
C513        C  0.51770709  0.73368614  0.36839286    -0.20700
C514        C  0.53667635  0.68566208  0.36318300    -0.07300
C515        C  0.58439198  0.67842934  0.36831427     0.13600
C516        C  0.61061501  0.71744487  0.38643699    -0.20800
C517        C  0.58918773  0.76172277  0.40120509    -0.07300
C518        C  0.54403283  0.77248740  0.38639711     0.13600
C519        C  0.52240685  0.82357877  0.39171318    -0.24100
H520        H  0.48134656  0.73969636  0.36260492     0.14900
H521        H  0.64631355  0.71063818  0.39472396     0.14900
C522        C  0.60665798  0.62819472  0.35954771    -0.24100
H523        H  0.50983517  0.83713855  0.35747052     0.05100
H524        H  0.54732153  0.85143737  0.40442689     0.08300
H525        H  0.49307013  0.82147024  0.41622749     0.08300
H526        H  0.60039551  0.61695964  0.32316242     0.08300
H527        H  0.59226525  0.59940964  0.38343325     0.08300
H528        H  0.64432447  0.62937380  0.36510595     0.05100
C529        C  0.21156732  0.46376182  0.26798099    -0.20700
C530        C  0.22777814  0.43726668  0.30656287    -0.07300
C531        C  0.20004004  0.40112437  0.32881763     0.13600
C532        C  0.15502198  0.39452861  0.31328414    -0.20800
C533        C  0.13819694  0.42254500  0.27555402    -0.07300
C534        C  0.16718390  0.45646731  0.25180006     0.13600
C535        C  0.15122468  0.48676672  0.21069099    -0.24100
H536        H  0.23349735  0.49123214  0.25119091     0.14900
H537        H  0.13255933  0.36844715  0.33116997     0.14900
C538        C  0.21718493  0.37152459  0.37007066    -0.24100
H539        H  0.17775645  0.51336541  0.19812780     0.05100
H540        H  0.12056058  0.50898607  0.22036800     0.08300
H541        H  0.14353465  0.46116924  0.18181442     0.08300
H542        H  0.22735941  0.39767875  0.39789822     0.08300
H543        H  0.24727470  0.34832398  0.35989400     0.08300
H544        H  0.19053669  0.34596137  0.38418292     0.05100
C545        C  0.27941118  0.99396328  0.52722255    -0.20700
C546        C  0.29783592  0.00173618  0.48211201    -0.07300
C547        C  0.34137205  0.97814000  0.47428028     0.13600
C548        C  0.36232188  0.94682828  0.50930850    -0.20800
C549        C  0.34143435  0.93713212  0.55285419    -0.07300
C550        C  0.29927043  0.96223190  0.56121100     0.13600
C551        C  0.27526519  0.95844931  0.60722681    -0.24100
H552        H  0.25028078  0.01534198  0.53870629     0.14900
H553        H  0.39543375  0.92970031  0.50256439     0.14900
C554        C  0.36687096  0.98669308  0.42953383    -0.24100
H555        H  0.24471607  0.98345376  0.60944002     0.05100
H556        H  0.29896604  0.96947562  0.63522338     0.08300
H557        H  0.26265994  0.91978664  0.61240673     0.08300
H558        H  0.37285081  0.02738425  0.42381576     0.08300
H559        H  0.34694605  0.97148919  0.40025400     0.08300
H560        H  0.40080116  0.96748932  0.42970998     0.05100
C561        C  0.35988988  0.24923871  0.42325287    -0.20700
C562        C  0.33058596  0.28630253  0.44130193    -0.07300
C563        C  0.28815140  0.27216207  0.46079366     0.13600
C564        C  0.27419554  0.22187686  0.45751875    -0.20800
C565        C  0.30295649  0.18514563  0.43790647    -0.07300
C566        C  0.34725951  0.19859088  0.42264705     0.13600
C567        C  0.38106433  0.16019310  0.40491134    -0.24100
H568        H  0.39287664  0.26021809  0.40915131     0.14900
H569        H  0.24075137  0.21105358  0.47050642     0.14900
C570        C  0.25742672  0.30982875  0.48425780    -0.24100
H571        H  0.41290110  0.17802747  0.39171456     0.05100
H572        H  0.36588511  0.13848448  0.37634203     0.08300
H573        H  0.39103725  0.13407286  0.43335876     0.08300
H574        H  0.24965804  0.34156185  0.46038991     0.08300
H575        H  0.27483242  0.32441540  0.51550226     0.08300
H576        H  0.22447174  0.29280803  0.49538240     0.05100
C577        C  0.52970244  0.14985938  0.07896935    -0.20700
C578        C  0.53223541  0.13517167  0.12588645    -0.07300
C579        C  0.49934066  0.15518258  0.15692633     0.13600
C580        C  0.46706139  0.19058245  0.14020267    -0.20800
C581        C  0.46397067  0.20339833  0.09264629    -0.07300
C582        C  0.49281691  0.17761099  0.06130470     0.13600
C583        C  0.48338650  0.17344312  0.01002809    -0.24100
H584        H  0.55512446  0.13653114  0.05473701     0.14900
H585        H  0.44358691  0.20801482  0.16447460     0.14900
C586        C  0.49800879  0.14029861  0.20741589    -0.24100
H587        H  0.45024315  0.15411371  0.00516800     0.05100
H588        H  0.50987258  0.15060667  0.99201849     0.08300
H589        H  0.48225786  0.20985343  0.99208445     0.08300
H590        H  0.53118470  0.14931655  0.22406104     0.08300
H591        H  0.49111736  0.09948117  0.21087738     0.08300
H592        H  0.47048784  0.16054950  0.22643696     0.05100
C593        C  0.37293992  0.44003301  0.17015058    -0.20700
C594        C  0.41526725  0.44486222  0.19208268    -0.07300
C595        C  0.45532292  0.42534321  0.17195517     0.13600
C596        C  0.45092340  0.39375192  0.13417872    -0.20800
C597        C  0.40730790  0.38077255  0.11744127    -0.07300
C598        C  0.36890930  0.41038341  0.13088013     0.13600
C599        C  0.32483609  0.41471746  0.10387801    -0.24100
H600        H  0.34284391  0.45851177  0.18439374     0.14900
H601        H  0.48131704  0.37558700  0.12033756     0.14900
C602        C  0.50197722  0.43419767  0.19263624    -0.24100
H603        H  0.32788964  0.39888314  0.06863387     0.05100
H604        H  0.31585649  0.45499032  0.09873909     0.08300
H605        H  0.29651007  0.39650965  0.12342050     0.08300
H606        H  0.50298376  0.42013454  0.22899683     0.08300
H607        H  0.50941078  0.47502359  0.19202118     0.08300
H608        H  0.52948655  0.41470083  0.17294981     0.05100
C609        C  0.91391476  0.47372872  0.06112589    -0.20700
C610        C  0.89922595  0.51549699  0.08716800    -0.07300
C611        C  0.93011331  0.55657637  0.09064296     0.13600
C612        C  0.96720126  0.55983708  0.06011643    -0.20800
C613        C  0.97759619  0.52157736  0.02885864    -0.07300
C614        C  0.95356836  0.47562225  0.03323649     0.13600
C615        C  0.96939257  0.42832814  0.00967161    -0.24100
H616        H  0.89504348  0.43906495  0.06243183     0.14900
H617        H  0.98851356  0.59299474  0.06088002     0.14900
C618        C  0.92570296  0.59735004  0.12640493    -0.24100
H619        H  0.94659121  0.39603263  0.01735691     0.05100
H620        H  0.00433422  0.41811487  0.02194563     0.08300
H621        H  0.96985242  0.43413908  0.97170688     0.08300
H622        H  0.92814487  0.58040438  0.16146945     0.08300
H623        H  0.89371134  0.61921327  0.12241462     0.08300
H624        H  0.95401796  0.62492272  0.12388982     0.05100
C625        C  0.09078608  0.51571439  0.09188931    -0.20700
C626        C  0.11379648  0.47739644  0.06786908    -0.07300
C627        C  0.10644407  0.42693426  0.08084769     0.13600
C628        C  0.07737459  0.41661371  0.11815240    -0.20800
C629        C  0.05877512  0.45489255  0.14596576    -0.07300
C630        C  0.06391555  0.50543812  0.13112303     0.13600
C631        C  0.04361215  0.54926318  0.15672439    -0.24100
H632        H  0.09464315  0.55435586  0.08044026     0.14900
H633        H  0.07282717  0.37786872  0.12813437     0.14900
C634        C  0.13194537  0.38381195  0.05863945    -0.24100
H635        H  0.05267433  0.58576226  0.14027699     0.05100
H636        H  0.05649765  0.55009838  0.19257874     0.08300
H637        H  0.00585370  0.54681217  0.15658415     0.08300
H638        H  0.16942519  0.39064830  0.06004082     0.08300
H639        H  0.12120739  0.37927069  0.02223767     0.08300
H640        H  0.12527216  0.34753114  0.07669763     0.05100
C641        C  0.13035661  0.76964797  0.65579485    -0.20700
C642        C  0.09413502  0.75683185  0.62686541    -0.07300
C643        C  0.05748958  0.72881054  0.64619336     0.13600
C644        C  0.06426675  0.70291482  0.68806967    -0.20800
C645        C  0.10519167  0.70771316  0.71315892    -0.07300
C646        C  0.13669712  0.74565284  0.69870620     0.13600
C647        C  0.17751998  0.76151190  0.72675985    -0.24100
H648        H  0.15617283  0.79538520  0.64340376     0.14900
H649        H  0.03754035  0.67810097  0.70052886     0.14900
C650        C  0.01104676  0.72551303  0.62369344    -0.24100
H651        H  0.19710956  0.79198777  0.70939717     0.05100
H652        H  0.20167982  0.72965663  0.73217245     0.08300
H653        H  0.16527435  0.77702806  0.76000888     0.08300
H654        H  0.00368958  0.68599661  0.61441248     0.08300
H655        H  0.00852086  0.74953336  0.59224380     0.08300
H656        H  0.98436739  0.73861603  0.64838483     0.05100
C657        C  0.23865749  0.77071618  0.59887727    -0.20700
C658        C  0.22512720  0.77946590  0.55274038    -0.07300
C659        C  0.25348397  0.81189634  0.52655102     0.13600
C660        C  0.29197809  0.83599036  0.54720789    -0.20800
C661        C  0.30343208  0.83242111  0.59535085    -0.07300
C662        C  0.27699745  0.79493482  0.62001204     0.13600
C663        C  0.28911522  0.77635046  0.66770217    -0.24100
H664        H  0.21844877  0.74443760  0.61906436     0.14900
H665        H  0.31366180  0.85698137  0.52408906     0.14900
C666        C  0.24314987  0.82109179  0.47608386    -0.24100
H667        H  0.26850797  0.74325540  0.67829439     0.05100
H668        H  0.28192015  0.80571725  0.69367678     0.08300
H669        H  0.32522111  0.76325124  0.66774825     0.08300
H670        H  0.20829338  0.83737648  0.47219502     0.08300
H671        H  0.24481140  0.78498926  0.45720534     0.08300
H672        H  0.26791552  0.84743758  0.45981425     0.05100
C673        C  0.46683795  0.62991891  0.64035151    -0.20700
C674        C  0.49383930  0.59616445  0.66604583    -0.07300
C675        C  0.49269827  0.54427587  0.65529519     0.13600
C676        C  0.46457230  0.52813901  0.61924440    -0.20800
C677        C  0.43519043  0.56164816  0.59597268    -0.07300
C678        C  0.43474932  0.61293621  0.60860036     0.13600
C679        C  0.39881299  0.65029036  0.59257887    -0.24100
H680        H  0.46680092  0.66947234  0.64914118     0.14900
H681        H  0.46566492  0.48905032  0.60914310     0.14900
C682        C  0.51905479  0.50508632  0.68237786    -0.24100
H683        H  0.38236045  0.66758186  0.62338527     0.05100
H684        H  0.37071911  0.63303536  0.57265069     0.08300
H685        H  0.41501843  0.68054061  0.57165444     0.08300
H686        H  0.50873264  0.50605287  0.71941219     0.08300
H687        H  0.55628240  0.51172191  0.67848612     0.08300
H688        H  0.51243931  0.46655043  0.66972913     0.05100
C689        C  0.51092917  0.77090840  0.73417007    -0.20700
C690        C  0.48363950  0.73488242  0.75664992    -0.07300
C691        C  0.43567584  0.74398601  0.75590032     0.13600
C692        C  0.41630409  0.77814686  0.72388096    -0.20800
C693        C  0.44286124  0.81210257  0.69758799    -0.07300
C694        C  0.49078705  0.81251647  0.70992310     0.13600
C695        C  0.52037499  0.85824854  0.70543995    -0.24100
H696        H  0.54789174  0.76781516  0.73692673     0.14900
H697        H  0.37964606  0.77796535  0.72142091     0.14900
C698        C  0.40361160  0.71767975  0.78870699    -0.24100
H699        H  0.53540543  0.86697393  0.73976147     0.05100
H700        H  0.50035887  0.89197570  0.69535330     0.08300
H701        H  0.54902829  0.85106908  0.68096719     0.08300
H702        H  0.42275937  0.69502745  0.81442117     0.08300
H703        H  0.37967415  0.69350600  0.76924989     0.08300
H704        H  0.38348328  0.74598609  0.80827840     0.05100
C705        C  0.39082024  0.57333757  0.74832121    -0.20700
C706        C  0.41608407  0.58638128  0.78775550    -0.07300
C707        C  0.39337833  0.59746310  0.82957364     0.13600
C708        C  0.34563044  0.60034160  0.82948621    -0.20800
C709        C  0.32039019  0.59036514  0.78928359    -0.07300
C710        C  0.34295442  0.57507388  0.74855584     0.13600
C711        C  0.31707235  0.56354716  0.70481959    -0.24100
H712        H  0.40877333  0.56464983  0.71641831     0.14900
H713        H  0.32772661  0.60958793  0.86132497     0.14900
C714        C  0.41903714  0.60769583  0.87384738    -0.24100
H715        H  0.34066367  0.55445104  0.67572676     0.05100
H716        H  0.29606694  0.59667498  0.69433755     0.08300
H717        H  0.29441218  0.53077002  0.71049972     0.08300
H718        H  0.44400123  0.63849403  0.86895635     0.08300
H719        H  0.43777966  0.57328490  0.88500793     0.08300
H720        H  0.39542730  0.61853706  0.90237739     0.05100
C721        C  0.38661645  0.91146567  0.00194119    -0.20700
C722        C  0.37437390  0.95970028  0.98665727    -0.07300
C723        C  0.39294251  0.00225850  0.00824479     0.13600
C724        C  0.41978110  0.99557114  0.04744800    -0.20800
C725        C  0.43321826  0.94737413  0.06262413    -0.07300
C726        C  0.41645719  0.90452327  0.03934495     0.13600
C727        C  0.42979338  0.85152151  0.05278870    -0.24100
H728        H  0.37163083  0.87905184  0.98552541     0.14900
H729        H  0.43268768  0.02878333  0.06437796     0.14900
C730        C  0.38665033  0.05510180  0.98965328    -0.24100
H731        H  0.41281604  0.82333383  0.03060967     0.05100
H732        H  0.41937864  0.84374831  0.08918630     0.08300
H733        H  0.46736367  0.84613317  0.04872817     0.08300
H734        H  0.36724462  0.07806207  0.01505750     0.08300
H735        H  0.36866110  0.05631187  0.95583117     0.08300
H736        H  0.42073124  0.07237301  0.98395349     0.05100
C737        C  0.38198079  0.93145320  0.77217116    -0.20700
C738        C  0.34985952  0.92559893  0.73641203    -0.07300
C739        C  0.30279958  0.93261170  0.74800746     0.13600
C740        C  0.28994780  0.95141123  0.79209299    -0.20800
C741        C  0.32230777  0.95986344  0.82723387    -0.07300
C742        C  0.36916245  0.94936294  0.81642998     0.13600
C743        C  0.40716311  0.95811090  0.85038743    -0.24100
H744        H  0.41797606  0.92513624  0.76450605     0.14900
H745        H  0.25384393  0.95589596  0.80015761     0.14900
C746        C  0.26490371  0.91787044  0.71596769    -0.24100
H747        H  0.43590054  0.97765574  0.83313103     0.05100
H748        H  0.42036797  0.92150372  0.86357544     0.08300
H749        H  0.39589675  0.98220941  0.87943021     0.08300
H750        H  0.27802391  0.89739702  0.68564829     0.08300
H751        H  0.24549596  0.95174690  0.70449827     0.08300
H752        H  0.24115751  0.89201259  0.73438330     0.05100
C753        C  0.29279663  0.76141937  0.90609339    -0.20700
C754        C  0.26813945  0.74076116  0.94356450    -0.07300
C755        C  0.25542641  0.77231901  0.98052611     0.13600
C756        C  0.26324468  0.82429115  0.97640895    -0.20800
C757        C  0.28127603  0.84563585  0.93538539    -0.07300
C758        C  0.29719135  0.81333963  0.90005029     0.13600
C759        C  0.31316817  0.83234005  0.85332884    -0.24100
H760        H  0.30334240  0.73694790  0.87809596     0.14900
H761        H  0.25264753  0.84872897  0.00429625     0.14900
C762        C  0.23098693  0.75215119  0.02272068    -0.24100
H763        H  0.31635871  0.80154585  0.82781554     0.05100
H764        H  0.34745593  0.84948097  0.85565533     0.08300
H765        H  0.28772653  0.85945052  0.83913096     0.08300
H766        H  0.25234409  0.72254512  0.03957006     0.08300
H767        H  0.19746296  0.73612898  0.01264665     0.08300
H768        H  0.22438806  0.78201887  0.04856939     0.05100
C769        C  0.67927286  0.41245754  0.04200882    -0.20700
C770        C  0.69165863  0.42357727  0.99552334    -0.07300
C771        C  0.72361580  0.46257147  0.98819594     0.13600
C772        C  0.74531830  0.48548710  0.02604523    -0.20800
C773        C  0.73668250  0.47129060  0.07254546    -0.07300
C774        C  0.70151036  0.43572255  0.08034313     0.13600
C775        C  0.68799355  0.42206275  0.12908990    -0.24100
H776        H  0.65372802  0.38387806  0.04841021     0.14900
H777        H  0.77118523  0.51362409  0.01912899     0.14900
C778        C  0.73470416  0.48093383  0.94014267    -0.24100
H779        H  0.65971673  0.39435460  0.12978630     0.05100
H780        H  0.67614921  0.45634947  0.14733442     0.08300
H781        H  0.71783361  0.40570793  0.14784927     0.08300
H782        H  0.70301212  0.49682866  0.92475514     0.08300
H783        H  0.74803574  0.44969807  0.91867506     0.08300
H784        H  0.76081495  0.51108104  0.94015521     0.05100
C785        C  0.51396198  0.29643039  0.00109221    -0.20700
C786        C  0.47126304  0.31041536  0.98186259    -0.07300
C787        C  0.47191375  0.34261186  0.94234975     0.13600
C788        C  0.51411192  0.35983002  0.92401042    -0.20800
C789        C  0.55650528  0.34343381  0.94204780    -0.07300
C790        C  0.55600193  0.30993153  0.98050385     0.13600
C791        C  0.59912886  0.28828402  0.00171845    -0.24100
H792        H  0.51485918  0.27571470  0.03349397     0.14900
H793        H  0.51360329  0.38641412  0.89540537     0.14900
C794        C  0.42835485  0.36094001  0.91972267    -0.24100
H795        H  0.60152617  0.29976149  0.03851899     0.05100
H796        H  0.63082688  0.30042409  0.98386968     0.08300
H797        H  0.59786293  0.24663789  0.00028663     0.08300
H798        H  0.42626754  0.40250552  0.92177074     0.08300
H799        H  0.39720084  0.34496641  0.93613002     0.08300
H800        H  0.42840111  0.34986779  0.88270803     0.05100
C801        C  0.61221731  0.52585820  0.88252102    -0.20700
C802        C  0.61764603  0.47952898  0.85902369    -0.07300
C803        C  0.60490662  0.47975959  0.81140226     0.13600
C804        C  0.59162179  0.52413388  0.78921446    -0.20800
C805        C  0.58355430  0.57021742  0.81164815    -0.07300
C806        C  0.59446347  0.57034553  0.85984775     0.13600
C807        C  0.58766659  0.61741007  0.88732588    -0.24100
H808        H  0.62147188  0.52732592  0.91881165     0.14900
H809        H  0.58247107  0.51936093  0.75365311     0.14900
C810        C  0.60159142  0.43415749  0.78086698    -0.24100
H811        H  0.59799476  0.61196186  0.92407399     0.05100
H812        H  0.55103771  0.62895202  0.88663638     0.08300
H813        H  0.60896710  0.64785777  0.87219759     0.08300
H814        H  0.56573292  0.43007578  0.76864675     0.08300
H815        H  0.61121535  0.39895508  0.79780624     0.08300
H816        H  0.62396313  0.43907705  0.74994377     0.05100
C817        C  0.88671073  0.02752582  0.36520648    -0.20700
C818        C  0.87270909  0.99732046  0.40245983    -0.07300
C819        C  0.88751731  0.94694185  0.40551829     0.13600
C820        C  0.92075139  0.93021642  0.37443835    -0.20800
C821        C  0.93699386  0.96129628  0.33855657    -0.07300
C822        C  0.91827937  0.01022957  0.33271288     0.13600
C823        C  0.92917881  0.04429580  0.29221266    -0.24100
H824        H  0.87391724  0.06580135  0.36252144     0.14900
H825        H  0.93404574  0.89230138  0.37814539     0.14900
C826        C  0.86907831  0.91063828  0.44113454    -0.24100
H827        H  0.96610101  0.05327144  0.29110378     0.05100
H828        H  0.91060519  0.08076917  0.29442077     0.08300
H829        H  0.91793245  0.02672269  0.25965758     0.08300
H830        H  0.87605933  0.92415474  0.47647516     0.08300
H831        H  0.88518202  0.87293096  0.43783649     0.08300
H832        H  0.83153220  0.90648137  0.43635554     0.05100
C833        C  0.11412526  0.14012645  0.52783191    -0.20700
C834        C  0.07751769  0.14796923  0.49706000    -0.07300
C835        C  0.08727593  0.15168790  0.44878057     0.13600
C836        C  0.13127520  0.13896377  0.43249112    -0.20800
C837        C  0.16628366  0.12528224  0.46330452    -0.07300
C838        C  0.15862902  0.13059716  0.51156608     0.13600
C839        C  0.19660996  0.12637215  0.54685684    -0.24100
H840        H  0.10783400  0.13931387  0.56489082     0.14900
H841        H  0.13774038  0.13834548  0.39550499     0.14900
C842        C  0.05253042  0.16920341  0.41343868    -0.24100
H843        H  0.19558155  0.15961187  0.56979347     0.05100
H844        H  0.23117976  0.12566815  0.53083602     0.08300
H845        H  0.19197484  0.09191750  0.56828744     0.08300
H846        H  0.02053851  0.18373298  0.42932393     0.08300
H847        H  0.04430755  0.13799191  0.38968105     0.08300
H848        H  0.06713463  0.20067393  0.39275288     0.05100
C849        C  0.05616352  0.94069921  0.50280753    -0.20700
C850        C  0.01240599  0.92838189  0.51950008    -0.07300
C851        C  0.00042003  0.87817511  0.52839330     0.13600
C852        C  0.03339059  0.84128282  0.52210069    -0.20800
C853        C  0.07800492  0.85343083  0.50806369    -0.07300
C854        C  0.08958393  0.90329015  0.49727553     0.13600
C855        C  0.13679670  0.91674484  0.48047050    -0.24100
H856        H  0.06471667  0.97970080  0.49623327     0.14900
H857        H  0.02474819  0.80263776  0.52962197     0.14900
C858        C  0.95348660  0.86326466  0.54552180    -0.24100
H859        H  0.13983461  0.95764257  0.47322832     0.05100
H860        H  0.14439047  0.89631761  0.44794211     0.08300
H861        H  0.16252091  0.90621077  0.50722173     0.08300
H862        H  0.92688009  0.87805417  0.52164916     0.08300
H863        H  0.94765985  0.87813676  0.58075951     0.08300
H864        H  0.94963385  0.82182730  0.54765448     0.05100
C865        C  0.46194774  0.07180502  0.67049249    -0.20700
C866        C  0.45970533  0.07913459  0.71913458    -0.07300
C867        C  0.41835500  0.06277640  0.74015010     0.13600
C868        C  0.39115139  0.02657305  0.71748212    -0.20800
C869        C  0.40446523  0.00518416  0.67459227    -0.07300
C870        C  0.43307863  0.03719276  0.64784328     0.13600
C871        C  0.42770900  0.04273399  0.59620210    -0.24100
H872        H  0.48513134  0.09381184  0.64940985     0.14900
H873        H  0.35928816  0.01644632  0.73365821     0.14900
C874        C  0.40228743  0.08237826  0.78621572    -0.24100
H875        H  0.42215005  0.08296563  0.58720960     0.05100
H876        H  0.39693179  0.02291150  0.58354107     0.08300
H877        H  0.45898515  0.02953578  0.57802633     0.08300
H878        H  0.42507962  0.11142875  0.80023548     0.08300
H879        H  0.40006760  0.05154787  0.81191584     0.08300
H880        H  0.36766983  0.09942309  0.78217141     0.05100
C881        C  0.52203950  0.00826964  0.87938848    -0.20700
C882        C  0.55688758  0.01082710  0.84601129    -0.07300
C883        C  0.59337419  0.97546983  0.84864488     0.13600
C884        C  0.59940530  0.94685485  0.88953294    -0.20800
C885        C  0.56637954  0.94828154  0.92479094    -0.07300
C886        C  0.52526864  0.97540073  0.91711492     0.13600
C887        C  0.48517293  0.97210195  0.94977382    -0.24100
H888        H  0.49198124  0.03227954  0.87612669     0.14900
H889        H  0.63026860  0.92447437  0.89421982     0.14900
C890        C  0.62408015  0.96421215  0.80834775    -0.24100
H891        H  0.45453654  0.96006519  0.93066936     0.05100
H892        H  0.47850200  0.00948298  0.96489721     0.08300
H893        H  0.49048166  0.94413580  0.97800306     0.08300
H894        H  0.61266108  0.98398092  0.77642323     0.08300
H895        H  0.62272201  0.92340829  0.80088857     0.08300
H896        H  0.65992037  0.97402228  0.81703873     0.05100
C897        C  0.66608218  0.05949483  0.73638142    -0.20700
C898        C  0.63196400  0.09193009  0.71954025    -0.07300
C899        C  0.63749342  0.11468978  0.67533907     0.13600
C900        C  0.67296502  0.09853799  0.64663968    -0.20800
C901        C  0.70491262  0.06282725  0.66214525    -0.07300
C902        C  0.70194768  0.04334390  0.70781108     0.13600
C903        C  0.73500580  0.00394787  0.72588229    -0.24100
H904        H  0.66406956  0.04557440  0.77145090     0.14900
H905        H  0.67696149  0.11587033  0.61267627     0.14900
C906        C  0.60785760  0.15759146  0.65818133    -0.24100
H907        H  0.72467786  0.98963622  0.76061769     0.05100
H908        H  0.76989026  0.01969237  0.72930603     0.08300
H909        H  0.73595287  0.97158372  0.70189845     0.08300
H910        H  0.58409922  0.17188030  0.68512614     0.08300
H911        H  0.58790054  0.14565163  0.62750700     0.08300
H912        H  0.63000252  0.18950139  0.64805029     0.05100
C913        C  0.55242378  0.23624050  0.81594188    -0.20700
C914        C  0.56638354  0.18812952  0.83113463    -0.07300
C915        C  0.59872868  0.18706191  0.86860611     0.13600
C916        C  0.61897924  0.23228829  0.88508458    -0.20800
C917        C  0.60480349  0.28027849  0.86959407    -0.07300
C918        C  0.56938583  0.28123503  0.83540677     0.13600
C919        C  0.54792356  0.32895027  0.81772116    -0.24100
H920        H  0.52769547  0.23932536  0.78810519     0.14900
H921        H  0.64434253  0.23002689  0.91245446     0.14900
C922        C  0.60999298  0.13973269  0.89534867    -0.24100
H923        H  0.51014000  0.32718245  0.82213858     0.05100
H924        H  0.55584247  0.33370690  0.78026891     0.08300
H925        H  0.55960372  0.36194694  0.83682694     0.08300
H926        H  0.64575486  0.12773748  0.88780765     0.08300
H927        H  0.58585916  0.10895274  0.88792801     0.08300
H928        H  0.60683694  0.14686717  0.93311556     0.05100
C929        C  0.61389184  0.47314078  0.60363523    -0.20700
C930        C  0.63545989  0.51832681  0.61422084    -0.07300
C931        C  0.61430080  0.56400149  0.60044483     0.13600
C932        C  0.57966235  0.56301862  0.56691869    -0.20800
C933        C  0.56402584  0.51708217  0.54967087    -0.07300
C934        C  0.57786044  0.47186279  0.57216373     0.13600
C935        C  0.55630817  0.42165120  0.56267803    -0.24100
H936        H  0.62752075  0.43785839  0.61635827     0.14900
H937        H  0.56610177  0.59816479  0.55327228     0.14900
C938        C  0.62757674  0.61366881  0.62070585    -0.24100
H939        H  0.56648449  0.39292295  0.58897330     0.05100
H940        H  0.56784500  0.40757828  0.52853776     0.08300
H941        H  0.51835843  0.42506638  0.56384649     0.08300
H942        H  0.64246879  0.63829868  0.59357447     0.08300
H943        H  0.65263758  0.60904024  0.64935108     0.08300
H944        H  0.59661836  0.63246093  0.63507389     0.05100
C945        C  0.72999382  0.41617002  0.74000241    -0.20700
C946        C  0.73873277  0.46832706  0.73675251    -0.07300
C947        C  0.73110301  0.49651505  0.77707098     0.13600
C948        C  0.71319025  0.47257013  0.81735718    -0.20800
C949        C  0.69779405  0.42188227  0.81760873    -0.07300
C950        C  0.70689317  0.39355784  0.77739101     0.13600
C951        C  0.68734868  0.34208498  0.76855329    -0.24100
H952        H  0.73455152  0.39339356  0.71005789     0.14900
H953        H  0.70766249  0.49525768  0.84756618     0.14900
C954        C  0.73906856  0.55221249  0.77689062    -0.24100
H955        H  0.66956489  0.34232804  0.73451297     0.05100
H956        H  0.66100893  0.33031674  0.79376048     0.08300
H957        H  0.71538731  0.31376650  0.76735788     0.08300
H958        H  0.71767442  0.57058453  0.74972291     0.08300
H959        H  0.77577966  0.55979451  0.76968333     0.08300
H960        H  0.73000545  0.56918536  0.81075446     0.05100
C961        C  0.78486526  0.31286491  0.64084942    -0.20700
C962        C  0.75327798  0.28294873  0.61796342    -0.07300
C963        C  0.71297422  0.30412310  0.59912220     0.13600
C964        C  0.70556956  0.35593745  0.60329396    -0.20800
C965        C  0.73979784  0.38647907  0.62174855    -0.07300
C966        C  0.78041719  0.36468038  0.64033923     0.13600
C967        C  0.82012136  0.39500875  0.65864366    -0.24100
H968        H  0.81624757  0.29600218  0.65417125     0.14900
H969        H  0.67489474  0.37296986  0.58885816     0.14900
C970        C  0.67907884  0.27258562  0.57336501    -0.24100
H971        H  0.84737299  0.37060193  0.67378847     0.05100
H972        H  0.80888061  0.42075854  0.68623621     0.08300
H973        H  0.83642392  0.41682817  0.63028315     0.08300
H974        H  0.66744093  0.24130966  0.59594659     0.08300
H975        H  0.69533276  0.25685266  0.54181544     0.08300
H976        H  0.64854232  0.29488843  0.56250085     0.05100
C977        C  0.96648100  0.41684184  0.86548832    -0.20700
C978        C  0.01045050  0.40710831  0.84771621    -0.07300
C979        C  0.03054534  0.35934215  0.85501489     0.13600
C980        C  0.01151841  0.32713458  0.88798685    -0.20800
C981        C  0.96963213  0.33840014  0.90939176    -0.07300
C982        C  0.94505679  0.38214283  0.89541028     0.13600
C983        C  0.89788073  0.39505597  0.91351627    -0.24100
H984        H  0.95048408  0.45316388  0.85931370     0.14900
H985        H  0.02930968  0.29241454  0.89633156     0.14900
C986        C  0.07345926  0.34263789  0.83005702    -0.24100
H987        H  0.89819108  0.43264978  0.92978802     0.05100
H988        H  0.88540692  0.36807745  0.93999604     0.08300
H989        H  0.87318601  0.39601102  0.88428591     0.08300
H990        H  0.10219739  0.33824249  0.85491541     0.08300
H991        H  0.08355261  0.36941284  0.80218908     0.08300
H992        H  0.06753732  0.30589004  0.81352455     0.05100
C993        C  0.80883606  0.27835318  0.92241956    -0.20700
C994        C  0.82886707  0.28036684  0.96659974    -0.07300
C995        C  0.80412862  0.30784823  0.00053408     0.13600
C996        C  0.76108613  0.33096009  0.98881122    -0.20800
C997        C  0.74525145  0.33522888  0.94222277    -0.07300
C998        C  0.77405170  0.31175973  0.90861192     0.13600
C999        C  0.77714639  0.32805086  0.85859475    -0.24100
H1000       H  0.82520574  0.25661266  0.89549292     0.14900
H1001       H  0.74096672  0.34650696  0.01648151     0.14900
C1002       C  0.82309143  0.31422835  0.04848552    -0.24100
H1003       H  0.76325279  0.29859988  0.83568809     0.05100
H1004       H  0.81356269  0.33399097  0.84863575     0.08300
H1005       H  0.76055631  0.36481922  0.85305333     0.08300
H1006       H  0.85748218  0.33177733  0.04642948     0.08300
H1007       H  0.82568689  0.27718285  0.06619245     0.08300
H1008       H  0.80072830  0.33881447  0.06985809     0.05100
C1009       C  0.95818657  0.22024904  0.83490388    -0.20700
C1010       C  0.92668654  0.19981403  0.86642017    -0.07300
C1011       C  0.89173878  0.16862976  0.85050487     0.13600
C1012       C  0.88729816  0.16121536  0.80269991    -0.20800
C1013       C  0.91759780  0.18371165  0.77015314    -0.07300
C1014       C  0.95449481  0.21240673  0.78704068     0.13600
C1015       C  0.98969917  0.23568782  0.75538706    -0.24100
H1016       H  0.98555143  0.24315264  0.84779259     0.14900
H1017       H  0.85973396  0.13749018  0.79095239     0.14900
C1018       C  0.85943682  0.14310080  0.88399224    -0.24100
H1019       H  0.01536956  0.25736390  0.77492014     0.05100
H1020       H  0.97277065  0.26180370  0.73043564     0.08300
H1021       H  0.00861380  0.20585394  0.73657258     0.08300
H1022       H  0.84038655  0.17130424  0.90459920     0.08300
H1023       H  0.87934646  0.11856743  0.90804848     0.08300
H1024       H  0.83408140  0.11946816  0.86580000     0.05100
C1025       C  0.84782016  0.59664832  0.22745624    -0.20700
C1026       C  0.81201915  0.56158098  0.22516738    -0.07300
C1027       C  0.79017566  0.54977610  0.26785515     0.13600
C1028       C  0.80724671  0.56989655  0.31052430    -0.20800
C1029       C  0.84808179  0.59870370  0.31259433    -0.07300
C1030       C  0.86889106  0.61024541  0.26934073     0.13600
C1031       C  0.91612812  0.63129485  0.26477232    -0.24100
H1032       H  0.86349771  0.60891614  0.19557669     0.14900
H1033       H  0.78984799  0.56089639  0.34272747     0.14900
C1034       C  0.74929706  0.51581813  0.26843625    -0.24100
H1035       H  0.91478846  0.66630397  0.24368816     0.05100
H1036       H  0.93839942  0.60393917  0.24640382     0.08300
H1037       H  0.93195566  0.63815517  0.29867709     0.08300
H1038       H  0.75848483  0.47906368  0.25300129     0.08300
H1039       H  0.72112762  0.53337061  0.24797403     0.08300
H1040       H  0.73666478  0.50905982  0.30429476     0.05100
C1041       C  0.76028826  0.65979677  0.45638016    -0.20700
C1042       C  0.80251763  0.68495803  0.44942903    -0.07300
C1043       C  0.80261907  0.73681567  0.46065660     0.13600
C1044       C  0.76215840  0.76164519  0.47664837    -0.20800
C1045       C  0.72030805  0.73659914  0.48411789    -0.07300
C1046       C  0.72021495  0.68429144  0.47449415     0.13600
C1047       C  0.67798317  0.65383269  0.48418412    -0.24100
H1048       H  0.75808983  0.62074536  0.44703696     0.14900
H1049       H  0.76308277  0.80168692  0.48282029     0.14900
C1050       C  0.84593250  0.76648501  0.45657289    -0.24100
H1051       H  0.68267785  0.61392332  0.47436542     0.05100
H1052       H  0.64807422  0.66918786  0.46512157     0.08300
H1053       H  0.67039397  0.65510910  0.52173649     0.08300
H1054       H  0.85779938  0.76747708  0.42002499     0.08300
H1055       H  0.87234252  0.74887240  0.47902557     0.08300
H1056       H  0.84093321  0.80567707  0.46830566     0.05100
C1057       C  0.93559246  0.73816675  0.32366004    -0.20700
C1058       C  0.93992642  0.72973105  0.37136924    -0.07300
C1059       C  0.96721139  0.76445637  0.39626905     0.13600
C1060       C  0.99241719  0.80227345  0.37209273    -0.20800
C1061       C  0.99282312  0.80553142  0.32315755    -0.07300
C1062       C  0.96437159  0.77138890  0.29918930     0.13600
C1063       C  0.96293838  0.76981979  0.24708917    -0.24100
H1064       H  0.91055332  0.71731360  0.30480030     0.14900
H1065       H  0.01016870  0.83065155  0.39172532     0.14900
C1066       C  0.96801112  0.76468194  0.44832974    -0.24100
H1067       H  0.96957653  0.73092010  0.23532211     0.05100
H1068       H  0.98999491  0.79330778  0.23115598     0.08300
H1069       H  0.92868622  0.78230424  0.23458989     0.08300
H1070       H  0.95470711  0.80127368  0.46079355     0.08300
H1071       H  0.94699407  0.73455492  0.46396242     0.08300
H1072       H  0.00347781  0.75909798  0.46070470     0.05100
C1073       C  0.01286147  0.63052944  0.47297664    -0.20700
C1074       C  0.99695415  0.65022341  0.43015633    -0.07300
C1075       C  0.03242675  0.67225212  0.40198485     0.13600
C1076       C  0.07409824  0.68872193  0.42240778    -0.20800
C1077       C  0.08529862  0.67886549  0.46923347    -0.07300
C1078       C  0.05775423  0.64051351  0.48997240     0.13600
C1079       C  0.07666112  0.60718981  0.52795058    -0.24100
H1080       H  0.99074511  0.60657686  0.49345550     0.14900
H1081       H  0.09722301  0.71157122  0.40181833     0.14900
C1082       C  0.03042799  0.67597648  0.35004062    -0.24100
H1083       H  0.07772448  0.56779567  0.51570928     0.05100
H1084       H  0.05447470  0.60883406  0.55923106     0.08300
H1085       H  0.11217203  0.61796374  0.53729572     0.08300
H1086       H  0.03686480  0.71504287  0.33852259     0.08300
H1087       H  0.99767153  0.66352534  0.33563468     0.08300
H1088       H  0.05791506  0.65203849  0.33511866     0.05100
C1089       C  0.93522571  0.45466115  0.32248598    -0.20700
C1090       C  0.97636120  0.47142384  0.30134628    -0.07300
C1091       C  0.98995566  0.52194083  0.31124275     0.13600
C1092       C  0.96435627  0.55141303  0.34163073    -0.20800
C1093       C  0.92251130  0.53686398  0.35995089    -0.07300
C1094       C  0.90792595  0.48699609  0.35110972     0.13600
C1095       C  0.86489795  0.46719173  0.37317863    -0.24100
H1096       H  0.92413817  0.41658156  0.31653348     0.14900
H1097       H  0.97680491  0.58800984  0.34980461     0.14900
C1098       C  0.03145104  0.54852463  0.29136109    -0.24100
H1099       H  0.85884367  0.42743589  0.36378689     0.05100
H1100       H  0.83488789  0.48954823  0.36168892     0.08300
H1101       H  0.86768379  0.46937729  0.41148561     0.08300
H1102       H  0.05238812  0.52684625  0.26708513     0.08300
H1103       H  0.05443295  0.55964528  0.32006950     0.08300
H1104       H  0.02009329  0.58297263  0.27249569     0.05100
C1105       C  0.81650903  0.56099389  0.49017615    -0.20700
C1106       C  0.84996432  0.59620154  0.49963440    -0.07300
C1107       C  0.85828090  0.60797404  0.54687478     0.13600
C1108       C  0.83223267  0.58421459  0.58306171    -0.20800
C1109       C  0.79569267  0.55146058  0.57296274    -0.07300
C1110       C  0.78712088  0.54208353  0.52445724     0.13600
C1111       C  0.74722002  0.51250994  0.50510880    -0.24100
H1112       H  0.81047121  0.55127930  0.45422485     0.14900
H1113       H  0.83952689  0.59250959  0.61895518     0.14900
C1114       C  0.89442865  0.64553340  0.55895072    -0.24100
H1115       H  0.72929800  0.53553377  0.47836717     0.05100
H1116       H  0.72041920  0.50134355  0.52996283     0.08300
H1117       H  0.76051196  0.47795374  0.48835209     0.08300
H1118       H  0.88621722  0.68229913  0.54239514     0.08300
H1119       H  0.92831688  0.63227422  0.54631796     0.08300
H1120       H  0.89670850  0.65102046  0.59699984     0.05100
C1121       C  0.06567612  0.25826614  0.14943946    -0.20700
C1122       C  0.10070345  0.23115328  0.17311711    -0.07300
C1123       C  0.10811017  0.24562786  0.22029427     0.13600
C1124       C  0.07987739  0.28231151  0.24143131    -0.20800
C1125       C  0.04434702  0.30709255  0.21791056    -0.07300
C1126       C  0.03616256  0.29304159  0.17160535     0.13600
C1127       C  0.99634195  0.31468227  0.14454716    -0.24100
H1128       H  0.06136816  0.25387513  0.11264995     0.14900
H1129       H  0.08829900  0.29532448  0.27588826     0.14900
C1130       C  0.14680769  0.22585885  0.24946117    -0.24100
H1131       H  0.97319192  0.28377405  0.13438934     0.05100
H1132       H  0.00841525  0.33369286  0.11245277     0.08300
H1133       H  0.97597122  0.34185025  0.16518485     0.08300
H1134       H  0.18002985  0.23930702  0.23574834     0.08300
H1135       H  0.14497754  0.18498106  0.25106403     0.08300
H1136       H  0.14484566  0.23897034  0.28586168     0.05100
C1137       C  0.23720266  0.10866637  0.24204450    -0.20700
C1138       C  0.18961143  0.10433206  0.23443691    -0.07300
C1139       C  0.16226698  0.09076867  0.27376322     0.13600
C1140       C  0.18316341  0.07924416  0.31705571    -0.20800
C1141       C  0.23075488  0.08272743  0.32420803    -0.07300
C1142       C  0.25783268  0.09800201  0.28579528     0.13600
C1143       C  0.30863948  0.10425812  0.29123456    -0.24100
H1144       H  0.25856237  0.12123709  0.21365698     0.14900
H1145       H  0.16155542  0.06964644  0.34639309     0.14900
C1146       C  0.11061691  0.09268499  0.27316535    -0.24100
H1147       H  0.32541756  0.11467020  0.25792875     0.05100
H1148       H  0.32421627  0.06853801  0.30394415     0.08300
H1149       H  0.31516707  0.13449644  0.31642038     0.08300
H1150       H  0.09675684  0.10832473  0.24033918     0.08300
H1151       H  0.09812554  0.11756837  0.30124234     0.08300
H1152       H  0.09671083  0.05452839  0.27937308     0.05100
C1153       C  0.23519704  0.22961637  0.07696380    -0.20700
C1154       C  0.24019843  0.17985575  0.09254603    -0.07300
C1155       C  0.28438875  0.15715211  0.08923541     0.13600
C1156       C  0.32218008  0.18541864  0.07218712    -0.20800
C1157       C  0.31700097  0.23559071  0.05704056    -0.07300
C1158       C  0.27193609  0.25660767  0.05741131     0.13600
C1159       C  0.26129903  0.30808201  0.03771527    -0.24100
H1160       H  0.20159936  0.24725862  0.07864159     0.14900
H1161       H  0.35628604  0.16901740  0.07290502     0.14900
C1162       C  0.29254273  0.10398834  0.10548896    -0.24100
H1163       H  0.23301004  0.30535345  0.01218637     0.05100
H1164       H  0.29093821  0.32490690  0.01928260     0.08300
H1165       H  0.25029901  0.33348805  0.06601031     0.08300
H1166       H  0.27284014  0.07762970  0.08399836     0.08300
H1167       H  0.28187662  0.09965875  0.14210185     0.08300
H1168       H  0.32931115  0.09316964  0.10292665     0.05100
C1169       C  0.11461501  0.95860073  0.22713346    -0.20700
C1170       C  0.06626192  0.96270365  0.22678079    -0.07300
C1171       C  0.04657989  0.00383777  0.20036342     0.13600
C1172       C  0.07443285  0.03694703  0.17627271    -0.20800
C1173       C  0.12176824  0.03570409  0.17950490    -0.07300
C1174       C  0.14260346  0.99474558  0.20370476     0.13600
C1175       C  0.19373962  0.98743741  0.20385348    -0.24100
H1176       H  0.13061778  0.92779078  0.24594165     0.14900
H1177       H  0.05807308  0.06704668  0.15690004     0.14900
C1178       C  0.99604578  0.01725926  0.19584106    -0.24100
H1179       H  0.20233291  0.94986184  0.18979691     0.05100
H1180       H  0.20683787  0.98986344  0.23985505     0.08300
H1181       H  0.21147214  0.01581874  0.18198002     0.08300
H1182       H  0.99040284  0.05620354  0.20812182     0.08300
H1183       H  0.97192617  0.99381305  0.21516683     0.08300
H1184       H  0.98583539  0.01557107  0.15881003     0.05100
C1185       C  0.97979248  0.18852495  0.07366637    -0.20700
C1186       C  0.99070106  0.20217000  0.02738527    -0.07300
C1187       C  0.03729554  0.19300731  0.01289106     0.13600
C1188       C  0.07019022  0.17488790  0.04455547    -0.20800
C1189       C  0.06023680  0.16468307  0.09100141    -0.07300
C1190       C  0.01360521  0.16953984  0.10525776     0.13600
C1191       C  0.99858427  0.15621622  0.15366682    -0.24100
H1192       H  0.94496794  0.19341660  0.08586551     0.14900
H1193       H  0.10517384  0.17006673  0.03275245     0.14900
C1194       C  0.05604955  0.20242332  0.96455752    -0.24100
H1195       H  0.98192683  0.18926456  0.16992752     0.05100
H1196       H  0.02763857  0.14440731  0.17602368     0.08300
H1197       H  0.97345864  0.12515257  0.15224798     0.08300
H1198       H  0.03139210  0.21668143  0.93885126     0.08300
H1199       H  0.07034043  0.16680293  0.95070231     0.08300
H1200       H  0.08413863  0.23029401  0.96627548     0.05100
C1201       C  0.18936751  0.03710437  0.05133433    -0.20700
C1202       C  0.18885289  0.08897737  0.04445188    -0.07300
C1203       C  0.20207563  0.10718757  0.99984691     0.13600
C1204       C  0.21798245  0.07301083  0.96531087    -0.20800
C1205       C  0.22008157  0.02024767  0.97282894    -0.07300
C1206       C  0.20523839  0.00303626  0.01803614     0.13600
C1207       C  0.20929980  0.94927731  0.03528869    -0.24100
H1208       H  0.17925570  0.02276747  0.08510127     0.14900
H1209       H  0.23109856  0.08816716  0.93295230     0.14900
C1210       C  0.19911844  0.16189278  0.98691522    -0.24100
H1211       H  0.20049228  0.94511149  0.07261296     0.05100
H1212       H  0.24509229  0.93544920  0.03224545     0.08300
H1213       H  0.18465064  0.92508873  0.01703332     0.08300
H1214       H  0.23400675  0.17661778  0.97989135     0.08300
H1215       H  0.18273736  0.18450533  0.01434378     0.08300
H1216       H  0.17791238  0.16657191  0.95522746     0.05100
loop_ 
_geom_bond_atom_site_label_1 
_geom_bond_atom_site_label_2 
_geom_bond_distance 
_geom_bond_site_symmetry_2 
_ccdc_geom_bond_type 
C1            H2   1.112       .  S
C1            C7   1.541       .  S
C1            C6   1.563       .  S
C1            C5   1.551       .  S
C3            H4   1.101       .  S
C3            C9   1.568       .  S
C3            C8   1.589       .  S
C3           C10   1.580       .  S
C5            C8   1.395       .  D
C5         C1189   1.526       .  S
C6            C9   1.384       .  D
C6         C1173   1.505       .  S
C7           C10   1.381       .  D
C7         C1202   1.525       .  S
C8         C1122   1.555       .  S
C9         C1138   1.541       .  S
C10        C1154   1.516       .  S
C11          H12   1.109       .  S
C11          C17   1.574       .  S
C11          C16   1.579       .  S
C11          C15   1.570       .  S
C13          H14   1.110       .  S
C13          C19   1.565       .  S
C13          C18   1.581       .  S
C13          C20   1.588       .  S
C15          C18   1.384       .  D
C15        C1093   1.522       .  S
C16          C19   1.388       .  D
C16        C1106   1.516       .  S
C17          C20   1.397       .  D
C17        C1074   1.567       .  S
C18        C1029   1.546       .  S
C19        C1042   1.557       .  S
C20        C1058   1.529       .  S
C21          C22   1.545       .  S
C21          C27   1.544       .  S
C21          C25   1.584   1_556  S
C21        C1186   1.570   1_556  S
C22          C23   1.360       .  D
C22          H29   1.087   1_655  S
C23          C24   1.510       .  S
C23         C981   1.477       .  S
C24          H30   1.109       .  S
C24          C28   1.519       .  S
C24          C26   1.543       .  S
C25          C26   1.402   1_554  D
C25          H31   1.082       .  S
C26         C994   1.533       .  S
C27          C28   1.356       .  D
C27          H32   1.087       .  S
C28        C1010   1.472       .  S
C33          C34   1.528       .  S
C33          C39   1.527       .  S
C33          C37   1.592       .  S
C33        C1109   1.567       .  S
C34          C35   1.359       .  D
C34          H41   1.086       .  S
C35          C36   1.533       .  S
C35         C930   1.483       .  S
C36          H42   1.110       .  S
C36          C40   1.524       .  S
C36          C38   1.528       .  S
C37          C38   1.410       .  D
C37          H43   1.084       .  S
C38         C946   1.525       .  S
C39          C40   1.344       .  D
C39          H44   1.088       .  S
C40         C965   1.465       .  S
C45          C46   1.524       .  S
C45          C51   1.528       .  S
C45          C49   1.578       .  S
C45         C866   1.571       .  S
C46          C47   1.354       .  D
C46          H53   1.084       .  S
C47          C48   1.552       .  S
C47         C882   1.487       .  S
C48          H54   1.105       .  S
C48          C52   1.537       .  S
C48          C50   1.554       .  S
C49          C50   1.403       .  D
C49          H55   1.084       .  S
C50         C914   1.553       .  S
C51          C52   1.357       .  D
C51          H56   1.080       .  S
C52         C898   1.478       .  S
Zr57         O58   2.443       .  S
Zr57         O59   2.399   1_545  S
Zr57         O60   2.413   1_655  S
Zr57         O63   2.415       .  S
Zr57         O65   2.378       .  S
Zr57         O66   2.393       .  S
Zr57         O67   2.402       .  S
Zr57         O68   2.394       .  S
O58         H114   0.991       .  S
O58         H122   0.990       .  S
O59          C79   1.275       .  A
O60          C81   1.279       .  A
O61         Zr71   2.396       .  S
O61          C80   1.268       .  A
O62         Zr70   2.460   1_455  S
O62          C81   1.290       .  A
O63          C80   1.274       .  A
O64         Zr72   2.388   1_565  S
O64          C79   1.275       .  A
O65         Zr70   2.393       .  S
O65         Zr72   2.370       .  S
O66         Zr71   2.416       .  S
O66         Zr72   2.366       .  S
O66         H101   0.965   1_545  S
O67         Zr70   2.401       .  S
O67         Zr87   2.399       .  S
O67         H104   0.966       .  S
O68         Zr71   2.415       .  S
O68         Zr87   2.373       .  S
Zr69         O94   2.442       .  S
Zr69         O88   2.415       .  S
Zr69         O96   2.402       .  S
Zr69         O84   2.395       .  S
Zr69         O75   2.396       .  S
Zr69         O76   2.408       .  S
Zr69         O77   2.386       .  S
Zr69         O78   2.388       .  S
Zr70         O89   2.436       .  S
Zr70         O82   2.434   1_655  S
Zr70         O83   2.485       .  S
Zr70         O76   2.396       .  S
Zr70         O77   2.389       .  S
Zr71         O73   2.436       .  S
Zr71         O95   2.439   1_545  S
Zr71         O97   2.417       .  S
Zr71         O75   2.399       .  S
Zr71         O78   2.394       .  S
Zr72         O98   2.432   1_545  S
Zr72         O99   2.435   1_545  S
Zr72         O74   2.438       .  S
Zr72         O75   2.387       .  S
Zr72         O76   2.361       .  S
O73         H110   0.990       .  S
O74         H105   0.990   1_545  S
O74         H119   0.990   1_655  S
O76         H102   0.963       .  S
O77         Zr87   2.390       .  S
O78         Zr87   2.387       .  S
O78         H103   0.966       .  S
C79         C850   1.443   1_655  S
C80         C818   1.457   1_545  S
C81         C834   1.490       .  S
O82         H118   0.990       .  S
O83          C85   1.295       .  A
O84          C85   1.278       .  A
C85        C1013   1.494       .  S
O86         Zr87   2.437       .  S
O86         H115   0.991       .  S
Zr87         O90   2.437       .  S
Zr87         O91   2.438       .  S
Zr87         O92   2.395       .  S
O88          C93   1.279       .  A
O89         H106   0.990       .  S
O89         H121   0.990       .  S
O90         H107   0.990       .  S
O91         H111   0.990       .  S
O91         H120   0.990       .  S
O92          C93   1.275       .  A
C93         C962   1.447       .  S
O94         H113   0.990       .  S
O94         H117   0.990       .  S
O95         H109   0.990       .  S
O95         H116   0.991       .  S
O96         C100   1.268       .  A
O97         C100   1.275       .  A
O98         H108   0.990       .  S
O99         H112   0.990   1_565  S
C100        C901   1.459       .  S
C123        H124   1.094       .  S
C123        C129   1.565       .  S
C123        C128   1.567       .  S
C123        C127   1.571       .  S
C125        H126   1.110       .  S
C125        C131   1.564       .  S
C125        C130   1.568       .  S
C125        C132   1.581       .  S
C127        C130   1.381       .  D
C127        C949   1.532       .  S
C128        C131   1.373       .  D
C128        C917   1.549       .  S
C129        C132   1.403       .  D
C129        C997   1.557       .  S
C130        C802   1.542       .  S
C131        C789   1.509       .  S
C132        C770   1.528       .  S
C133        C134   1.513       .  S
C133        C139   1.547       .  S
C133        C137   1.576       .  S
C133       C1205   1.569   1_565  S
C134        C135   1.341       .  D
C134        H141   1.089   1_566  S
C135        C136   1.522       .  S
C135        C722   1.461       .  S
C136        H142   1.101       .  S
C136        C140   1.526       .  S
C136        C138   1.546       .  S
C137        C138   1.403       .  D
C137        H143   1.085   1_565  S
C138        C741   1.526       .  S
C139        C140   1.366       .  D
C139        H144   1.081       .  S
C140        C757   1.492       .  S
C145        C146   1.558       .  S
C145        C151   1.542       .  S
C145        C149   1.587       .  S
C145        C805   1.576       .  S
C146        C147   1.352       .  D
C146        H153   1.084       .  S
C147        C148   1.513       .  S
C147        C674   1.477       .  S
C148        H154   1.109       .  S
C148        C152   1.508       .  S
C148        C150   1.528       .  S
C149        C150   1.405       .  D
C149        H155   1.084       .  S
C150        C690   1.523       .  S
C151        C152   1.347       .  D
C151        H156   1.087       .  S
C152        C706   1.464       .  S
C157        C158   1.534       .  S
C157        C163   1.539       .  S
C157        C161   1.587       .  S
C157       C1077   1.596       .  S
C158        C159   1.356       .  D
C158        H165   1.085       .  S
C159        C160   1.532       .  S
C159        C853   1.462       .  S
C160        H166   1.110       .  S
C160        C164   1.536       .  S
C160        C162   1.538       .  S
C161        C162   1.407       .  D
C161        H167   1.084       .  S
C162        C658   1.542       .  S
C163        C164   1.354       .  D
C163        H168   1.071       .  S
C164        C642   1.492       .  S
Zr169       O170   2.438       .  S
Zr169       O171   2.425       .  S
Zr169       O172   2.377       .  S
Zr169       O175   2.386       .  S
Zr169       O177   2.369       .  S
Zr169       O178   2.376       .  S
Zr169       O179   2.398       .  S
Zr169       O180   2.398       .  S
O170        H226   0.991       .  S
O170        H234   0.990       .  S
O171        C191   1.281       .  A
O172        C193   1.273       .  A
O173       Zr183   2.466       .  S
O173        C192   1.292       .  A
O174       Zr182   2.475       .  S
O174        C193   1.287       .  A
O175        C192   1.274       .  A
O176       Zr184   2.388       .  S
O176        C191   1.271       .  A
O177       Zr182   2.381       .  S
O177       Zr184   2.389       .  S
O178       Zr183   2.390       .  S
O178       Zr184   2.392       .  S
O178        H213   0.965       .  S
O179       Zr182   2.409       .  S
O179       Zr199   2.399       .  S
O179        H216   0.965       .  S
O180       Zr183   2.387       .  S
O180       Zr199   2.392       .  S
Zr181       O206   2.431       .  S
Zr181       O200   2.409       .  S
Zr181       O208   2.415       .  S
Zr181       O196   2.402       .  S
Zr181       O187   2.389       .  S
Zr181       O188   2.407       .  S
Zr181       O189   2.381       .  S
Zr181       O190   2.394       .  S
Zr182       O201   2.441   1_556  S
Zr182       O194   2.437       .  S
Zr182       O195   2.429   1_556  S
Zr182       O188   2.415       .  S
Zr182       O189   2.397       .  S
Zr183       O185   2.442       .  S
Zr183       O207   2.438       .  S
Zr183       O209   2.444       .  S
Zr183       O187   2.412       .  S
Zr183       O190   2.419       .  S
Zr184       O210   2.437       .  S
Zr184       O211   2.439       .  S
Zr184       O186   2.435       .  S
Zr184       O187   2.366       .  S
Zr184       O188   2.397       .  S
O185        H222   0.989       .  S
O186        H217   0.990       .  S
O186        H231   0.989       .  S
O188        H214   0.966       .  S
O189       Zr199   2.351       .  S
O190       Zr199   2.370       .  S
O190        H215   0.967       .  S
C191        C709   1.456       .  S
C192        C645   1.494       .  S
C193        C754   1.483       .  S
O194        H230   0.990       .  S
O195        C197   1.282       .  A
O196        C197   1.271   1_556  A
C197        C626   1.473       .  S
O198       Zr199   2.434       .  S
O198        H227   0.990       .  S
Zr199       O202   2.435   1_556  S
Zr199       O203   2.437   1_455  S
Zr199       O204   2.434       .  S
O200        C205   1.277       .  A
O201        H218   0.990       .  S
O201        H233   0.990       .  S
O202        H219   0.990       .  S
O203        H223   0.990       .  S
O203        H232   0.990       .  S
O204        C205   1.286       .  A
C205        C613   1.492   1_456  S
O206        H225   0.989       .  S
O206        H229   0.988       .  S
O207        H221   0.990       .  S
O207        H228   0.990       .  S
O208        C212   1.274       .  A
O209        C212   1.277       .  A
O210        H220   0.991       .  S
O211        H224   0.990       .  S
C212        C978   1.470       .  S
C235        C236   1.514       .  S
C235        C241   1.511       .  S
C235        C239   1.548       .  S
C235        C597   1.513       .  S
C236        C237   1.360       .  D
C236        H243   1.083       .  S
C237        C238   1.578       .  S
C237       C1157   1.517       .  S
C238        H244   1.103       .  S
C238        C242   1.585       .  S
C238        C240   1.542       .  S
C239        C240   1.370       .  D
C239        H245   1.086       .  S
C240        C581   1.500       .  S
C241        C242   1.354       .  D
C241        H246   1.089       .  S
C242        C786   1.514   1_554  S
C247        C248   1.551       .  S
C247        C253   1.538       .  S
C247        C251   1.577       .  S
C247        C546   1.594       .  S
C248        C249   1.359       .  D
C248        H255   1.082       .  S
C249        C250   1.526       .  S
C249        C837   1.488       .  S
C250        H256   1.111       .  S
C250        C254   1.534       .  S
C250        C252   1.545       .  S
C251        C252   1.398       .  D
C251        H257   1.084       .  S
C252       C1141   1.527       .  S
C253        C254   1.363       .  D
C253        H258   1.086       .  S
C254        C565   1.482       .  S
C259        C260   1.550       .  S
C259        C265   1.539       .  S
C259        C263   1.576       .  S
C259       C1090   1.562   1_455  S
C260        C261   1.367       .  D
C260        H267   1.082   1_455  S
C261        C262   1.529       .  S
C261        C629   1.494       .  S
C262        H268   1.110       .  S
C262        C266   1.512       .  S
C262        C264   1.523       .  S
C263        C264   1.397       .  D
C263        H269   1.084   1_455  S
C264       C1125   1.498       .  S
C265        C266   1.348       .  D
C265        H270   1.087       .  S
C266        C533   1.470       .  S
Zr271       O272   2.441       .  S
Zr271       O273   2.402       .  S
Zr271       O274   2.416       .  S
Zr271       O277   2.405       .  S
Zr271       O279   2.376       .  S
Zr271       O280   2.382       .  S
Zr271       O281   2.391       .  S
Zr271       O282   2.396       .  S
O272        H328   0.990       .  S
O272        H336   0.990       .  S
O273        C293   1.277       .  A
O274        C295   1.282       .  A
O275       Zr285   2.396       .  S
O275        C294   1.277       .  A
O276       Zr284   2.459       .  S
O276        C295   1.288       .  A
O277        C294   1.282       .  A
O278       Zr286   2.417       .  S
O278        C293   1.281       .  A
O279       Zr284   2.385       .  S
O279       Zr286   2.380       .  S
O280       Zr285   2.392       .  S
O280       Zr286   2.354       .  S
O280        H315   0.967       .  S
O281       Zr284   2.408       .  S
O281       Zr301   2.377       .  S
O281        H318   0.966       .  S
O282       Zr285   2.400       .  S
O282       Zr301   2.387       .  S
Zr283       O308   2.438       .  S
Zr283       O302   2.429       .  S
Zr283       O310   2.419       .  S
Zr283       O298   2.373       .  S
Zr283       O289   2.386       .  S
Zr283       O290   2.423       .  S
Zr283       O291   2.374       .  S
Zr283       O292   2.378       .  S
Zr284       O303   2.439       .  S
Zr284       O296   2.434       .  S
Zr284       O297   2.451       .  S
Zr284       O290   2.407       .  S
Zr284       O291   2.381       .  S
Zr285       O287   2.434       .  S
Zr285       O309   2.436       .  S
Zr285       O311   2.423       .  S
Zr285       O289   2.386       .  S
Zr285       O292   2.388       .  S
Zr286       O312   2.435       .  S
Zr286       O313   2.435       .  S
Zr286       O288   2.439       .  S
Zr286       O289   2.403       .  S
Zr286       O290   2.379       .  S
O287        H324   0.990       .  S
O288        H319   0.990       .  S
O288        H333   0.990       .  S
O290        H316   0.966       .  S
O291       Zr301   2.361       .  S
O292       Zr301   2.374       .  S
O292        H317   0.965       .  S
C293        C530   1.456       .  S
C294        C594   1.440       .  S
C295        C562   1.476       .  S
O296        H332   0.990       .  S
O297        C299   1.286       .  A
O298        C299   1.267       .  A
C299        C677   1.469       .  S
O300       Zr301   2.437       .  S
O300        H329   0.990       .  S
Zr301       O304   2.436       .  S
Zr301       O305   2.440       .  S
Zr301       O306   2.403       .  S
O302        C307   1.282       .  A
O303        H320   0.990       .  S
O303        H335   0.990       .  S
O304        H321   0.990       .  S
O305        H325   0.990       .  S
O305        H334   0.990       .  S
O306        C307   1.278       .  A
C307        C933   1.474       .  S
O308        H327   0.990       .  S
O308        H331   0.990       .  S
O309        H323   0.990       .  S
O309        H330   0.990       .  S
O310        C314   1.282       .  A
O311        C314   1.280       .  A
O312        H322   0.990       .  S
O313        H326   0.990       .  S
C314        C514   1.461       .  S
C337        H338   1.082       .  S
C337        C343   1.573       .  S
C337        C342   1.557       .  S
C337        C341   1.607       .  S
C339        H340   1.099       .  S
C339        C345   1.587       .  S
C339        C344   1.565       .  S
C339        C346   1.586       .  S
C341        C344   1.404       .  D
C341        C661   1.599       .  S
C342        C345   1.400       .  D
C342        C738   1.527       .  S
C343        C346   1.386       .  D
C343        C693   1.560       .  S
C344        C549   1.547       .  S
C345        C869   1.562   1_565  S
C346        C498   1.554       .  S
C347        C348   1.541       .  S
C347        C353   1.536   1_455  S
C347        C351   1.585       .  S
C347       C1170   1.553       .  S
C348        C349   1.350   1_455  D
C348        H355   1.085       .  S
C349        C350   1.518       .  S
C349        C821   1.473       .  S
C350        H356   1.113       .  S
C350        C354   1.519       .  S
C350        C352   1.520   1_655  S
C351        C352   1.408       .  D
C351        H357   1.084       .  S
C352       C1061   1.510   1_455  S
C353        C354   1.345       .  D
C353        H358   1.088   1_655  S
C354        C482   1.460       .  S
C359        C360   1.535       .  S
C359        C365   1.556       .  S
C359        C363   1.591       .  S
C359        C501   1.603       .  S
C360        C361   1.359       .  D
C360        H367   1.086       .  S
C361        C362   1.522       .  S
C361        C517   1.478       .  S
C362        H368   1.111       .  S
C362        C366   1.533       .  S
C362        C364   1.534       .  S
C363        C364   1.403       .  D
C363        H369   1.085       .  S
C364       C1045   1.542       .  S
C365        C366   1.367       .  D
C365        H370   1.075       .  S
C366        C466   1.491       .  S
C371        C372   1.529       .  S
C371        C377   1.520       .  S
C371        C375   1.551       .  S
C371        C610   1.542       .  S
C372        C373   1.370       .  D
C372        H379   1.084       .  S
C373        C374   1.593       .  S
C373        C773   1.533       .  S
C374        H380   1.109       .  S
C374        C378   1.590       .  S
C374        C376   1.527       .  S
C375        C376   1.362       .  D
C375        H381   1.086       .  S
C376        C450   1.484       .  S
C377        C378   1.369       .  D
C377        H382   1.086       .  S
C378       C1026   1.545       .  S
Zr383       O384   2.439       .  S
Zr383       O385   2.374       .  S
Zr383       O386   2.419       .  S
Zr383       O389   2.419       .  S
Zr383       O391   2.382       .  S
Zr383       O392   2.384       .  S
Zr383       O393   2.386       .  S
Zr383       O394   2.388       .  S
O384        H440   0.990       .  S
O384        H448   0.990       .  S
O385        C405   1.274       .  A
O386        C407   1.281       .  A
O387       Zr397   2.440   1_565  S
O387        C406   1.289       .  A
O388       Zr396   2.443       .  S
O388        C407   1.286       .  A
O389        C406   1.282       .  A
O390       Zr398   2.380       .  S
O390        C405   1.271       .  A
O391       Zr396   2.393       .  S
O391       Zr398   2.384       .  S
O392       Zr397   2.386   1_565  S
O392       Zr398   2.377       .  S
O392        H427   0.965       .  S
O393       Zr396   2.413       .  S
O393       Zr413   2.398       .  S
O393        H430   0.965       .  S
O394       Zr397   2.404   1_565  S
O394       Zr413   2.390       .  S
Zr395       O420   2.431   1_565  S
Zr395       O414   2.395       .  S
Zr395       O422   2.397   1_565  S
Zr395       O410   2.373       .  S
Zr395       O401   2.380   1_565  S
Zr395       O402   2.396       .  S
Zr395       O403   2.374       .  S
Zr395       O404   2.391       .  S
Zr396       O415   2.436       .  S
Zr396       O408   2.436   1_554  S
Zr396       O409   2.467   1_554  S
Zr396       O402   2.397       .  S
Zr396       O403   2.380       .  S
Zr397       O399   2.438       .  S
Zr397       O421   2.436       .  S
Zr397       O423   2.462       .  S
Zr397       O401   2.394       .  S
Zr397       O404   2.392   1_545  S
Zr398       O424   2.435   1_565  S
Zr398       O425   2.436   1_565  S
Zr398       O400   2.439       .  S
Zr398       O401   2.384   1_565  S
Zr398       O402   2.370       .  S
O399        H436   0.990       .  S
O400        H431   0.990       .  S
O400        H445   0.990   1_554  S
O402        H428   0.963       .  S
O403       Zr413   2.384       .  S
O404       Zr413   2.384       .  S
O404        H429   0.965       .  S
C405        C485   1.422       .  S
C406        C469   1.488       .  S
C407        C453   1.483       .  S
O408        H444   0.990   1_556  S
O409        C411   1.289       .  A
O410        C411   1.274   1_554  A
C411        C885   1.471       .  S
O412       Zr413   2.438       .  S
O412        H441   0.990       .  S
Zr413       O416   2.439       .  S
Zr413       O417   2.439       .  S
Zr413       O418   2.412       .  S
O414        C419   1.271       .  A
O415        H432   0.990       .  S
O415        H447   0.989       .  S
O416        H433   0.990       .  S
O417        H437   0.990       .  S
O417        H446   0.990       .  S
O418        C419   1.276       .  A
C419        C725   1.470       .  S
O420        H439   0.988       .  S
O420        H443   0.990       .  S
O421        H435   0.990       .  S
O421        H442   0.990       .  S
O422        C426   1.272       .  A
O423        C426   1.282       .  A
O424        H434   0.990       .  S
O425        H438   0.990       .  S
C426        C578   1.496       .  S
C449        C450   1.402       .  A
C449        C454   1.401       .  A
C449        H456   1.082       .  S
C450        C451   1.413       .  A
C451        C458   1.505       .  S
C451        C452   1.407       .  A
C452        C453   1.406       .  A
C452        H457   1.084       .  S
C453        C454   1.418       .  A
C454        C455   1.510       .  S
C455        H459   1.111       .  S
C455        H460   1.109       .  S
C455        H461   1.110       .  S
C458        H462   1.108       .  S
C458        H463   1.108       .  S
C458        H464   1.111       .  S
C465        C466   1.404       .  A
C465        C470   1.404       .  A
C465        H472   1.083       .  S
C466        C467   1.419       .  A
C467        C474   1.509       .  S
C467        C468   1.401       .  A
C468        C469   1.404       .  A
C468        H473   1.084       .  S
C469        C470   1.420       .  A
C470        C471   1.509       .  S
C471        H475   1.112       .  S
C471        H476   1.108       .  S
C471        H477   1.108       .  S
C474        H478   1.109       .  S
C474        H479   1.108       .  S
C474        H480   1.111       .  S
C481        C482   1.399       .  A
C481        C486   1.372       .  A
C481        H488   1.071       .  S
C482        C483   1.415       .  A
C483        C490   1.505       .  S
C483        C484   1.397       .  A
C484        C485   1.395       .  A
C484        H489   1.085       .  S
C485        C486   1.399       .  A
C486        C487   1.513       .  S
C487        H491   1.111       .  S
C487        H492   1.108       .  S
C487        H493   1.110   1_565  S
C490        H494   1.105       .  S
C490        H495   1.110       .  S
C490        H496   1.111       .  S
C497        C498   1.415       .  A
C497        C502   1.428       .  A
C497        H504   1.084       .  S
C498        C499   1.425       .  A
C499        C506   1.506       .  S
C499        C500   1.427       .  A
C500        C501   1.426       .  A
C500        H505   1.076       .  S
C501        C502   1.434       .  A
C502        C503   1.507       .  S
C503        H507   1.105       .  S
C503        H508   1.110       .  S
C503        H509   1.111       .  S
C506        H510   1.103       .  S
C506        H511   1.109       .  S
C506        H512   1.111       .  S
C513        C514   1.399       .  A
C513        C518   1.397       .  A
C513        H520   1.085       .  S
C514        C515   1.412       .  A
C515        C522   1.506       .  S
C515        C516   1.401       .  A
C516        C517   1.400       .  A
C516        H521   1.082       .  S
C517        C518   1.412       .  A
C518        C519   1.505       .  S
C519        H523   1.110       .  S
C519        H524   1.108       .  S
C519        H525   1.110       .  S
C522        H526   1.110       .  S
C522        H527   1.110       .  S
C522        H528   1.111       .  S
C529        C530   1.394       .  A
C529        C534   1.393       .  A
C529        H536   1.085       .  S
C530        C531   1.410       .  A
C531        C538   1.505       .  S
C531        C532   1.401       .  A
C532        C533   1.401       .  A
C532        H537   1.084       .  S
C533        C534   1.413       .  A
C534        C535   1.501       .  S
C535        H539   1.111       .  S
C535        H540   1.106       .  S
C535        H541   1.106       .  S
C538        H542   1.110       .  S
C538        H543   1.110       .  S
C538        H544   1.111       .  S
C545        C546   1.421   1_565  A
C545        C550   1.411       .  A
C545        H552   1.073   1_565  S
C546        C547   1.431   1_545  A
C547        C554   1.504       .  S
C547        C548   1.438       .  A
C548        C549   1.417       .  A
C548        H553   1.083       .  S
C549        C550   1.417       .  A
C550        C551   1.502       .  S
C551        H555   1.111       .  S
C551        H556   1.107       .  S
C551        H557   1.104       .  S
C554        H558   1.109   1_565  S
C554        H559   1.108       .  S
C554        H560   1.111       .  S
C561        C562   1.404       .  A
C561        C566   1.401       .  A
C561        H568   1.085       .  S
C562        C563   1.410       .  A
C563        C570   1.505       .  S
C563        C564   1.406       .  A
C564        C565   1.406       .  A
C564        H569   1.084       .  S
C565        C566   1.412       .  A
C566        C567   1.508       .  S
C567        H571   1.111       .  S
C567        H572   1.106       .  S
C567        H573   1.108       .  S
C570        H574   1.107       .  S
C570        H575   1.110       .  S
C570        H576   1.111       .  S
C577        C578   1.407       .  A
C577        C582   1.395       .  A
C577        H584   1.079       .  S
C578        C579   1.416       .  A
C579        C586   1.506       .  S
C579        C580   1.410       .  A
C580        C581   1.413       .  A
C580        H585   1.084       .  S
C581        C582   1.413       .  A
C582        C583   1.510       .  S
C583        H587   1.108       .  S
C583        H588   1.111   1_554  S
C583        H589   1.095   1_554  S
C586        H590   1.110       .  S
C586        H591   1.110       .  S
C586        H592   1.111       .  S
C593        C594   1.396       .  A
C593        C598   1.393       .  A
C593        H600   1.085       .  S
C594        C595   1.402       .  A
C595        C602   1.508       .  S
C595        C596   1.390       .  A
C596        C597   1.408       .  A
C596        H601   1.084       .  S
C597        C598   1.421       .  A
C598        C599   1.508       .  S
C599        H603   1.108       .  S
C599        H604   1.111       .  S
C599        H605   1.111       .  S
C602        H606   1.111       .  S
C602        H607   1.110       .  S
C602        H608   1.111       .  S
C609        C610   1.412       .  A
C609        C614   1.408       .  A
C609        H616   1.078       .  S
C610        C611   1.426       .  A
C611        C618   1.510       .  S
C611        C612   1.396       .  A
C612        C613   1.398       .  A
C612        H617   1.084       .  S
C613        C614   1.419       .  A
C614        C615   1.506       .  S
C615        H619   1.111       .  S
C615        H620   1.111   1_655  S
C615        H621   1.105   1_554  S
C618        H622   1.106       .  S
C618        H623   1.102       .  S
C618        H624   1.111       .  S
C625        C626   1.405       .  A
C625        C630   1.401       .  A
C625        H632   1.084       .  S
C626        C627   1.409       .  A
C627        C634   1.511       .  S
C627        C628   1.395       .  A
C628        C629   1.408       .  A
C628        H633   1.077       .  S
C629        C630   1.417       .  A
C630        C631   1.504       .  S
C631        H635   1.111       .  S
C631        H636   1.102       .  S
C631        H637   1.104       .  S
C634        H638   1.110       .  S
C634        H639   1.104       .  S
C634        H640   1.111       .  S
C641        C642   1.394       .  A
C641        C646   1.399       .  A
C641        H648   1.080       .  S
C642        C643   1.418       .  A
C643        C650   1.507       .  S
C643        C644   1.399       .  A
C644        C645   1.405       .  A
C644        H649   1.084       .  S
C645        C646   1.429       .  A
C646        C647   1.506       .  S
C647        H651   1.110       .  S
C647        H652   1.109       .  S
C647        H653   1.106       .  S
C650        H654   1.111       .  S
C650        H655   1.107       .  S
C650        H656   1.110   1_455  S
C657        C658   1.406       .  A
C657        C662   1.435       .  A
C657        H664   1.083       .  S
C658        C659   1.412       .  A
C659        C666   1.505       .  S
C659        C660   1.431       .  A
C660        C661   1.431       .  A
C660        H665   1.074       .  S
C661        C662   1.446       .  A
C662        C663   1.499       .  S
C663        H667   1.110       .  S
C663        H668   1.107       .  S
C663        H669   1.107       .  S
C666        H670   1.108       .  S
C666        H671   1.110       .  S
C666        H672   1.111       .  S
C673        C674   1.399       .  A
C673        C678   1.392       .  A
C673        H680   1.086       .  S
C674        C675   1.420       .  A
C675        C682   1.505       .  S
C675        C676   1.399       .  A
C676        C677   1.400       .  A
C676        H681   1.084       .  S
C677        C678   1.417       .  A
C678        C679   1.510       .  S
C679        H683   1.111       .  S
C679        H684   1.107       .  S
C679        H685   1.110       .  S
C682        H686   1.110       .  S
C682        H687   1.107       .  S
C682        H688   1.111       .  S
C689        C690   1.404       .  A
C689        C694   1.428       .  A
C689        H696   1.084       .  S
C690        C691   1.418       .  A
C691        C698   1.501       .  S
C691        C692   1.406       .  A
C692        C693   1.409       .  A
C692        H697   1.072       .  S
C693        C694   1.443       .  A
C694        C695   1.502       .  S
C695        H699   1.111       .  S
C695        H700   1.105       .  S
C695        H701   1.110       .  S
C698        H702   1.102       .  S
C698        H703   1.110       .  S
C698        H704   1.110       .  S
C705        C706   1.405       .  A
C705        C710   1.397       .  A
C705        H712   1.084       .  S
C706        C707   1.408       .  A
C707        C714   1.510       .  S
C707        C708   1.394       .  A
C708        C709   1.404       .  A
C708        H713   1.085       .  S
C709        C710   1.408       .  A
C710        C711   1.507       .  S
C711        H715   1.112       .  S
C711        H716   1.110       .  S
C711        H717   1.109       .  S
C714        H718   1.108       .  S
C714        H719   1.109       .  S
C714        H720   1.111       .  S
C721        C722   1.398   1_554  A
C721        C726   1.398       .  A
C721        H728   1.084   1_554  S
C722        C723   1.411   1_566  A
C723        C730   1.511   1_554  S
C723        C724   1.386   1_545  A
C724        C725   1.405       .  A
C724        H729   1.085   1_565  S
C725        C726   1.420       .  A
C726        C727   1.509       .  S
C727        H731   1.111       .  S
C727        H732   1.110       .  S
C727        H733   1.110       .  S
C730        H734   1.111   1_556  S
C730        H735   1.109       .  S
C730        H736   1.110       .  S
C737        C738   1.406       .  A
C737        C742   1.416       .  A
C737        H744   1.085       .  S
C738        C739   1.424       .  A
C739        C746   1.499       .  S
C739        C740   1.420       .  A
C740        C741   1.407       .  A
C740        H745   1.084       .  S
C741        C742   1.427       .  A
C742        C743   1.502       .  S
C743        H747   1.105       .  S
C743        H748   1.110       .  S
C743        H749   1.108       .  S
C746        H750   1.102       .  S
C746        H751   1.110       .  S
C746        H752   1.111       .  S
C753        C754   1.407       .  A
C753        C758   1.399       .  A
C753        H760   1.085       .  S
C754        C755   1.411       .  A
C755        C762   1.506   1_556  S
C755        C756   1.408       .  A
C756        C757   1.410       .  A
C756        H761   1.083   1_556  S
C757        C758   1.415       .  A
C758        C759   1.509       .  S
C759        H763   1.110       .  S
C759        H764   1.105       .  S
C759        H765   1.108       .  S
C762        H766   1.110       .  S
C762        H767   1.110       .  S
C762        H768   1.111       .  S
C769        C770   1.417   1_554  A
C769        C774   1.432       .  A
C769        H776   1.083       .  S
C770        C771   1.414       .  A
C771        C778   1.501       .  S
C771        C772   1.410   1_556  A
C772        C773   1.413       .  A
C772        H777   1.084       .  S
C773        C774   1.417       .  A
C774        C775   1.501       .  S
C775        H779   1.111       .  S
C775        H780   1.111       .  S
C775        H781   1.110       .  S
C778        H782   1.106       .  S
C778        H783   1.109       .  S
C778        H784   1.110       .  S
C785        C786   1.411   1_554  A
C785        C790   1.409   1_554  A
C785        H792   1.081       .  S
C786        C787   1.420       .  A
C787        C794   1.506       .  S
C787        C788   1.416       .  A
C788        C789   1.408       .  A
C788        H793   1.082       .  S
C789        C790   1.417       .  A
C790        C791   1.508   1_556  S
C791        H795   1.110       .  S
C791        H796   1.106   1_554  S
C791        H797   1.111       .  S
C794        H798   1.110       .  S
C794        H799   1.109       .  S
C794        H800   1.110       .  S
C801        C802   1.421       .  A
C801        C806   1.441       .  A
C801        H808   1.083       .  S
C802        C803   1.424       .  A
C803        C810   1.511       .  S
C803        C804   1.391       .  A
C804        C805   1.411       .  A
C804        H809   1.070       .  S
C805        C806   1.427       .  A
C806        C807   1.501       .  S
C807        H811   1.110       .  S
C807        H812   1.110       .  S
C807        H813   1.110       .  S
C810        H814   1.111       .  S
C810        H815   1.088       .  S
C810        H816   1.111       .  S
C817        C818   1.398   1_545  A
C817        C822   1.392       .  A
C817        H824   1.085       .  S
C818        C819   1.408       .  A
C819        C826   1.505       .  S
C819        C820   1.393       .  A
C820        C821   1.403       .  A
C820        H825   1.083       .  S
C821        C822   1.418   1_565  A
C822        C823   1.507       .  S
C823        H827   1.105       .  S
C823        H828   1.111       .  S
C823        H829   1.105       .  S
C826        H830   1.104       .  S
C826        H831   1.110       .  S
C826        H832   1.111       .  S
C833        C834   1.403       .  A
C833        C838   1.402       .  A
C833        H840   1.084       .  S
C834        C835   1.423       .  A
C835        C842   1.507       .  S
C835        C836   1.406       .  A
C836        C837   1.399       .  A
C836        H841   1.083       .  S
C837        C838   1.418       .  A
C838        C839   1.509       .  S
C839        H843   1.110       .  S
C839        H844   1.108       .  S
C839        H845   1.110       .  S
C842        H846   1.108       .  S
C842        H847   1.110       .  S
C842        H848   1.111       .  S
C849        C850   1.403       .  A
C849        C854   1.399       .  A
C849        H856   1.085       .  S
C850        C851   1.405       .  A
C851        C858   1.509   1_455  S
C851        C852   1.383       .  A
C852        C853   1.401       .  A
C852        H857   1.081       .  S
C853        C854   1.404       .  A
C854        C855   1.503       .  S
C855        H859   1.111       .  S
C855        H860   1.110       .  S
C855        H861   1.110       .  S
C858        H862   1.106       .  S
C858        H863   1.107       .  S
C858        H864   1.111       .  S
C865        C866   1.420       .  A
C865        C870   1.418       .  A
C865        H872   1.080       .  S
C866        C867   1.418       .  A
C867        C874   1.505       .  S
C867        C868   1.419       .  A
C868        C869   1.419       .  A
C868        H873   1.074       .  S
C869        C870   1.419       .  A
C870        C871   1.504       .  S
C871        H875   1.111       .  S
C871        H876   1.109       .  S
C871        H877   1.108       .  S
C874        H878   1.104       .  S
C874        H879   1.103       .  S
C874        H880   1.110       .  S
C881        C882   1.400       .  A
C881        C886   1.393   1_545  A
C881        H888   1.085       .  S
C882        C883   1.418   1_545  A
C883        C890   1.497       .  S
C883        C884   1.408       .  A
C884        C885   1.400       .  A
C884        H889   1.084       .  S
C885        C886   1.412       .  A
C886        C887   1.503       .  S
C887        H891   1.102       .  S
C887        H892   1.107   1_565  S
C887        H893   1.108       .  S
C890        H894   1.107       .  S
C890        H895   1.111       .  S
C890        H896   1.109       .  S
C897        C898   1.398       .  A
C897        C902   1.398       .  A
C897        H904   1.076       .  S
C898        C899   1.416       .  A
C899        C906   1.508       .  S
C899        C900   1.392       .  A
C900        C901   1.398       .  A
C900        H905   1.085       .  S
C901        C902   1.414       .  A
C902        C903   1.510       .  S
C903        H907   1.110   1_545  S
C903        H908   1.108       .  S
C903        H909   1.111   1_545  S
C906        H910   1.108       .  S
C906        H911   1.111       .  S
C906        H912   1.108       .  S
C913        C914   1.408       .  A
C913        C918   1.421       .  A
C913        H920   1.083       .  S
C914        C915   1.436       .  A
C915        C922   1.506       .  S
C915        C916   1.431       .  A
C916        C917   1.409       .  A
C916        H921   1.084       .  S
C917        C918   1.430       .  A
C918        C919   1.498       .  S
C919        H923   1.110       .  S
C919        H924   1.110       .  S
C919        H925   1.098       .  S
C922        H926   1.110       .  S
C922        H927   1.107       .  S
C922        H928   1.111       .  S
C929        C930   1.398       .  A
C929        C934   1.391       .  A
C929        H936   1.079       .  S
C930        C931   1.414       .  A
C931        C938   1.505       .  S
C931        C932   1.401       .  A
C932        C933   1.405       .  A
C932        H937   1.084       .  S
C933        C934   1.419       .  A
C934        C935   1.509       .  S
C935        H939   1.111       .  S
C935        H940   1.108       .  S
C935        H941   1.110       .  S
C938        H942   1.106       .  S
C938        H943   1.110       .  S
C938        H944   1.111       .  S
C945        C946   1.416       .  A
C945        C950   1.403       .  A
C945        H952   1.068       .  S
C946        C947   1.407       .  A
C947        C954   1.503       .  S
C947        C948   1.420       .  A
C948        C949   1.425       .  A
C948        H953   1.076       .  S
C949        C950   1.414       .  A
C950        C951   1.512       .  S
C951        H955   1.111       .  S
C951        H956   1.102       .  S
C951        H957   1.109       .  S
C954        H958   1.110       .  S
C954        H959   1.110       .  S
C954        H960   1.111       .  S
C961        C962   1.394       .  A
C961        C966   1.385       .  A
C961        H968   1.086       .  S
C962        C963   1.408       .  A
C963        C970   1.504       .  S
C963        C964   1.401       .  A
C964        C965   1.401       .  A
C964        H969   1.083       .  S
C965        C966   1.420       .  A
C966        C967   1.515       .  S
C967        H971   1.111       .  S
C967        H972   1.103       .  S
C967        H973   1.107       .  S
C970        H974   1.107       .  S
C970        H975   1.110       .  S
C970        H976   1.111       .  S
C977        C978   1.403   1_655  A
C977        C982   1.407       .  A
C977        H984   1.084       .  S
C978        C979   1.411       .  A
C979        C986   1.509       .  S
C979        C980   1.392       .  A
C980        C981   1.400   1_455  A
C980        H985   1.082       .  S
C981        C982   1.419       .  A
C982        C983   1.509       .  S
C983        H987   1.110       .  S
C983        H988   1.106       .  S
C983        H989   1.110       .  S
C986        H990   1.109       .  S
C986        H991   1.110       .  S
C986        H992   1.108       .  S
C993        C994   1.405       .  A
C993        C998   1.400       .  A
C993       H1000   1.082       .  S
C994        C995   1.420   1_556  A
C995       C1002   1.502       .  S
C995        C996   1.434   1_554  A
C996        C997   1.425       .  A
C996       H1001   1.074   1_556  S
C997        C998   1.427       .  A
C998        C999   1.505       .  S
C999       H1003   1.110       .  S
C999       H1004   1.112       .  S
C999       H1005   1.099       .  S
C1002      H1006   1.111       .  S
C1002      H1007   1.109       .  S
C1002      H1008   1.111       .  S
C1009      C1010   1.400       .  A
C1009      C1014   1.403       .  A
C1009      H1016   1.077       .  S
C1010      C1011   1.400       .  A
C1011      C1018   1.508       .  S
C1011      C1012   1.401       .  A
C1012      C1013   1.419       .  A
C1012      H1017   1.083       .  S
C1013      C1014   1.414       .  A
C1014      C1015   1.505       .  S
C1015      H1019   1.107   1_655  S
C1015      H1020   1.110       .  S
C1015      H1021   1.109   1_655  S
C1018      H1022   1.108       .  S
C1018      H1023   1.110       .  S
C1018      H1024   1.111       .  S
C1025      C1026   1.408       .  A
C1025      C1030   1.408       .  A
C1025      H1032   1.075       .  S
C1026      C1027   1.419       .  A
C1027      C1034   1.502       .  S
C1027      C1028   1.439       .  A
C1028      C1029   1.423       .  A
C1028      H1033   1.083       .  S
C1029      C1030   1.418       .  A
C1030      C1031   1.496       .  S
C1031      H1035   1.109       .  S
C1031      H1036   1.110       .  S
C1031      H1037   1.100       .  S
C1034      H1038   1.110       .  S
C1034      H1039   1.111       .  S
C1034      H1040   1.111       .  S
C1041      C1042   1.419       .  A
C1041      C1046   1.435       .  A
C1041      H1048   1.079       .  S
C1042      C1043   1.422       .  A
C1043      C1050   1.499       .  S
C1043      C1044   1.427       .  A
C1044      C1045   1.410       .  A
C1044      H1049   1.083       .  S
C1045      C1046   1.423       .  A
C1046      C1047   1.504       .  S
C1047      H1051   1.110       .  S
C1047      H1052   1.106       .  S
C1047      H1053   1.106       .  S
C1050      H1054   1.109       .  S
C1050      H1055   1.106       .  S
C1050      H1056   1.109       .  S
C1057      C1058   1.398       .  A
C1057      C1062   1.408       .  A
C1057      H1064   1.073       .  S
C1058      C1059   1.425       .  A
C1059      C1066   1.502       .  S
C1059      C1060   1.427       .  A
C1060      C1061   1.413       .  A
C1060      H1065   1.084   1_655  S
C1061      C1062   1.421       .  A
C1062      C1063   1.505       .  S
C1063      H1067   1.109       .  S
C1063      H1068   1.107       .  S
C1063      H1069   1.110       .  S
C1066      H1070   1.109       .  S
C1066      H1071   1.105       .  S
C1066      H1072   1.104   1_655  S
C1073      C1074   1.415   1_455  A
C1073      C1078   1.427       .  A
C1073      H1080   1.081   1_455  S
C1074      C1075   1.439   1_655  A
C1075      C1082   1.502       .  S
C1075      C1076   1.426       .  A
C1076      C1077   1.412       .  A
C1076      H1081   1.084       .  S
C1077      C1078   1.430       .  A
C1078      C1079   1.506       .  S
C1079      H1083   1.110       .  S
C1079      H1084   1.110       .  S
C1079      H1085   1.111       .  S
C1082      H1086   1.106       .  S
C1082      H1087   1.097   1_455  S
C1082      H1088   1.109       .  S
C1089      C1090   1.418       .  A
C1089      C1094   1.435       .  A
C1089      H1096   1.082       .  S
C1090      C1091   1.437       .  A
C1091      C1098   1.515   1_655  S
C1091      C1092   1.394       .  A
C1092      C1093   1.385       .  A
C1092      H1097   1.071       .  S
C1093      C1094   1.423       .  A
C1094      C1095   1.503       .  S
C1095      H1099   1.111       .  S
C1095      H1100   1.105       .  S
C1095      H1101   1.110       .  S
C1098      H1102   1.094       .  S
C1098      H1103   1.110       .  S
C1098      H1104   1.111       .  S
C1105      C1106   1.387       .  A
C1105      C1110   1.400       .  A
C1105      H1112   1.086       .  S
C1106      C1107   1.423       .  A
C1107      C1114   1.502       .  S
C1107      C1108   1.434       .  A
C1108      C1109   1.415       .  A
C1108      H1113   1.083       .  S
C1109      C1110   1.446       .  A
C1110      C1111   1.520       .  S
C1111      H1115   1.110       .  S
C1111      H1116   1.100       .  S
C1111      H1117   1.111       .  S
C1114      H1118   1.110       .  S
C1114      H1119   1.109       .  S
C1114      H1120   1.111       .  S
C1121      C1122   1.419       .  A
C1121      C1126   1.416       .  A
C1121      H1128   1.076       .  S
C1122      C1123   1.435       .  A
C1123      C1130   1.499       .  S
C1123      C1124   1.415       .  A
C1124      C1125   1.398       .  A
C1124      H1129   1.085       .  S
C1125      C1126   1.412       .  A
C1126      C1127   1.509   1_455  S
C1127      H1131   1.110       .  S
C1127      H1132   1.109   1_655  S
C1127      H1133   1.110       .  S
C1130      H1134   1.106       .  S
C1130      H1135   1.091       .  S
C1130      H1136   1.111       .  S
C1137      C1138   1.412       .  A
C1137      C1142   1.425       .  A
C1137      H1144   1.080       .  S
C1138      C1139   1.430       .  A
C1139      C1146   1.507       .  S
C1139      C1140   1.421       .  A
C1140      C1141   1.408       .  A
C1140      H1145   1.084       .  S
C1141      C1142   1.417       .  A
C1142      C1143   1.501       .  S
C1143      H1147   1.111       .  S
C1143      H1148   1.111       .  S
C1143      H1149   1.108       .  S
C1146      H1150   1.107       .  S
C1146      H1151   1.111       .  S
C1146      H1152   1.109       .  S
C1153      C1154   1.402       .  A
C1153      C1158   1.408       .  A
C1153      H1160   1.085       .  S
C1154      C1155   1.423       .  A
C1155      C1162   1.504       .  S
C1155      C1156   1.423       .  A
C1156      C1157   1.409       .  A
C1156      H1161   1.084       .  S
C1157      C1158   1.425       .  A
C1158      C1159   1.509       .  S
C1159      H1163   1.110       .  S
C1159      H1164   1.109       .  S
C1159      H1165   1.111       .  S
C1162      H1166   1.106       .  S
C1162      H1167   1.105       .  S
C1162      H1168   1.111       .  S
C1169      C1170   1.414       .  A
C1169      C1174   1.430       .  A
C1169      H1176   1.083       .  S
C1170      C1171   1.444   1_565  A
C1171      C1178   1.520   1_455  S
C1171      C1172   1.384       .  A
C1172      C1173   1.384       .  A
C1172      H1177   1.081       .  S
C1173      C1174   1.423   1_545  A
C1174      C1175   1.503       .  S
C1175      H1179   1.110       .  S
C1175      H1180   1.110       .  S
C1175      H1181   1.110   1_565  S
C1178      H1182   1.110       .  S
C1178      H1183   1.092   1_545  S
C1178      H1184   1.111       .  S
C1185      C1186   1.416       .  A
C1185      C1190   1.431   1_655  A
C1185      H1192   1.082       .  S
C1186      C1187   1.441   1_655  A
C1187      C1194   1.516   1_554  S
C1187      C1188   1.406       .  A
C1188      C1189   1.395       .  A
C1188      H1193   1.082       .  S
C1189      C1190   1.425       .  A
C1190      C1191   1.502   1_455  S
C1191      H1195   1.110       .  S
C1191      H1196   1.108   1_655  S
C1191      H1197   1.110       .  S
C1194      H1198   1.097       .  S
C1194      H1199   1.111       .  S
C1194      H1200   1.111       .  S
C1201      C1202   1.394       .  A
C1201      C1206   1.403       .  A
C1201      H1208   1.084       .  S
C1202      C1203   1.424   1_554  A
C1203      C1210   1.502       .  S
C1203      C1204   1.430       .  A
C1204      C1205   1.420       .  A
C1204      H1209   1.083       .  S
C1205      C1206   1.444   1_556  A
C1206      C1207   1.515   1_545  S
C1207      H1211   1.111       .  S
C1207      H1212   1.108       .  S
C1207      H1213   1.106       .  S
C1210      H1214   1.111       .  S
C1210      H1215   1.105   1_556  S
C1210      H1216   1.110       .  S
