geometry optimzed in LAMMPS
_audit_creation_date              2020-11-30 
_audit_creation_method            'lammps2cif' 
_symmetry_space_group_name_H-M    'P1' 
_symmetry_Int_Tables_number       1 
_symmetry_cell_setting            triclinic 
loop_ 
_symmetry_equiv_pos_as_xyz 
  x,y,z 
_cell_length_a                    39.76522997487765 
_cell_length_b                    39.7956047906921 
_cell_length_c                    88.89326963749193 
_cell_angle_alpha                 89.95671694762883 
_cell_angle_beta                  90.18377719440826 
_cell_angle_gamma                 88.88727527380654 
loop_ 
_atom_site_label 
_atom_site_type_symbol 
_atom_site_fract_x 
_atom_site_fract_y 
_atom_site_fract_z 
_atom_site_charge 
N1          N  0.29618122  0.99465181  0.82799656    -0.26730
N2          N  0.32099884  0.99695537  0.83770788    -0.34580
C3          C  0.31170101  0.98355969  0.85078232     0.01610
C4          C  0.27893834  0.97221546  0.84956472     0.07640
C5          C  0.26932249  0.98157187  0.83500977    -0.05460
H6          H  0.32829957  0.98150628  0.86040677     0.08310
H7          H  0.24501002  0.97910792  0.82975827     0.09510
Cu8        Cu  0.36853363  0.01228689  0.83224653     0.44170
Cu9        Cu  0.30738086  0.00118004  0.80550398     0.41990
Cu10       Cu  0.40044426  0.97589684  0.80034950     0.43880
N11         N  0.41763832  0.99631341  0.83096412    -0.34110
N12         N  0.42820812  0.97553449  0.82039840    -0.28370
C13         C  0.45414629  0.95664664  0.82600724    -0.04470
C14         C  0.46028207  0.96705037  0.84076363     0.07750
C15         C  0.43678545  0.99255317  0.84317916     0.01540
H16         H  0.46522529  0.93511774  0.82034992     0.09200
H17         H  0.43069072  0.00413965  0.85385968     0.08270
N18         N  0.36740774  0.99553525  0.78388375    -0.35560
N19         N  0.33525338  0.00408146  0.78582609    -0.27740
C20         C  0.32274300  0.01639844  0.77286563    -0.02980
C21         C  0.34797066  0.01604960  0.76224653     0.05630
C22         C  0.37597991  0.00281776  0.76960092     0.03720
H23         H  0.29706196  0.02526488  0.77134635     0.08830
H24         H  0.40067268  0.99828461  0.76485655     0.07660
N25         N  0.19455756  0.40569447  0.82691853    -0.26730
N26         N  0.17042916  0.40067141  0.83668539    -0.34580
C27         C  0.17954573  0.41289698  0.85003347     0.01610
C28         C  0.21145021  0.42639287  0.84897254     0.07640
C29         C  0.22088218  0.41948905  0.83413790    -0.05460
H30         H  0.16333416  0.41267906  0.85977062     0.08310
H31         H  0.24469141  0.42392935  0.82882307     0.09510
Cu32       Cu  0.12352618  0.38343079  0.83122138     0.44170
Cu33       Cu  0.18311758  0.40061053  0.80426883     0.41990
Cu34       Cu  0.08873168  0.42003153  0.79999003     0.43880
N35         N  0.07383446  0.39767312  0.83049659    -0.34110
N36         N  0.06176966  0.41823209  0.82011482    -0.28370
C37         C  0.03505938  0.43548898  0.82592990    -0.04470
C38         C  0.03010464  0.42433231  0.84065723     0.07750
C39         C  0.05505100  0.40005815  0.84282677     0.01540
H40         H  0.02262225  0.45653215  0.82042031     0.09200
H41         H  0.06208558  0.38831245  0.85338599     0.08270
N42         N  0.12168049  0.40213189  0.78326032    -0.35560
N43         N  0.15436970  0.39564118  0.78478929    -0.27740
C44         C  0.16625772  0.38276283  0.77184642    -0.02980
C45         C  0.14000826  0.38040054  0.76163524     0.05630
C46         C  0.11216093  0.39299704  0.76932427     0.03720
H47         H  0.19234133  0.37572574  0.77009866     0.08830
H48         H  0.08647687  0.39450434  0.76532540     0.07660
C49         C  0.01091750  0.43880418  0.85360784     0.01130
C50         C  0.47866541  0.45078132  0.85358371     0.01130
N51         N  0.21695721  0.39105714  0.63907244    -0.26730
N52         N  0.24434453  0.37430143  0.63485163    -0.34580
C53         C  0.25592181  0.38759085  0.62205100     0.01610
C54         C  0.23512007  0.41423427  0.61807909     0.07640
C55         C  0.21060344  0.41591996  0.62910692    -0.05460
H56         H  0.27637995  0.37699057  0.61548444     0.08310
H57         H  0.18864504  0.43238896  0.62928429     0.09510
Cu58       Cu  0.25891972  0.32834701  0.64354720     0.44170
Cu59       Cu  0.18763202  0.37494177  0.65683206     0.41990
Cu60       Cu  0.19518155  0.28461839  0.66291912     0.43880
N61         N  0.25102365  0.27792880  0.64068907    -0.34110
N62         N  0.22486045  0.26242491  0.64636341    -0.28370
C63         C  0.21887389  0.23489449  0.63802440    -0.04470
C64         C  0.24269585  0.23315105  0.62669131     0.07750
C65         C  0.26275569  0.26058545  0.62884444     0.01540
H66         H  0.19697592  0.21939124  0.63915837     0.09200
H67         H  0.28106698  0.26999623  0.62099266     0.08270
N68         N  0.17380705  0.31793354  0.67831434    -0.35560
N69         N  0.16996270  0.35055709  0.67578614    -0.27740
C70         C  0.15828734  0.36549156  0.68832469    -0.02980
C71         C  0.15505799  0.34129789  0.69936621     0.05630
C72         C  0.16517311  0.31140865  0.69263928     0.03720
H73         H  0.15515708  0.39238332  0.68969752     0.08830
H74         H  0.16769354  0.28702846  0.69796278     0.07660
N75         N  0.26918435  0.50402033  0.63910394    -0.26730
N76         N  0.24337267  0.02295243  0.63465868    -0.34580
C77         C  0.23113174  0.51067652  0.62174298     0.01610
C78         C  0.24981748  0.48238106  0.61799193     0.07640
C79         C  0.27382202  0.47877024  0.62922572    -0.05780
H80         H  0.21181452  0.02291846  0.61497378     0.08310
H81         H  0.29446933  0.46067961  0.62959000     0.09510
Cu82       Cu  0.23288376  0.06968299  0.64358307     0.44170
Cu83       Cu  0.29928272  0.01799176  0.65691045     0.41990
Cu84       Cu  0.30279523  0.10839046  0.66212439     0.43880
N85         N  0.24459896  0.11937937  0.64103261    -0.34110
N86         N  0.27273241  0.13259914  0.64606488    -0.28370
C87         C  0.27970533  0.15970735  0.63759844    -0.04470
C88         C  0.25446309  0.16361569  0.62691272     0.07750
C89         C  0.23259344  0.13789286  0.62956151     0.01540
H90         H  0.30292306  0.17337700  0.63817835     0.09200
H91         H  0.21255716  0.13010120  0.62215320     0.08270
N92         N  0.32110343  0.07354750  0.67778034    -0.35560
N93         N  0.31950772  0.04070136  0.67568087    -0.27740
C94         C  0.32775979  0.02482591  0.68851773    -0.02980
C95         C  0.33502984  0.04862647  0.69926655     0.05630
C96         C  0.33071135  0.07932785  0.69209495     0.03720
H97         H  0.32599902  0.99799630  0.69023583     0.08830
H98         H  0.33138803  0.10391456  0.69726174     0.07660
C99         C  0.24114908  0.21382974  0.61242542     0.01130
C100        C  0.25559218  0.18248092  0.61251301     0.01130
N101        N  0.30006472  0.17113363  0.38928466    -0.26730
N102        N  0.31683277  0.19756314  0.38471144    -0.34580
C103        C  0.30384128  0.20852594  0.37161031     0.01610
C104        C  0.27737023  0.18829519  0.36783124     0.07640
C105        C  0.27553862  0.16476458  0.37927291    -0.05460
H106        H  0.31456992  0.22801961  0.36474049     0.08310
H107        H  0.25928029  0.14330516  0.37970429     0.09510
Cu108      Cu  0.36247664  0.21094429  0.39364388     0.44170
Cu109      Cu  0.31608307  0.14251215  0.40746379     0.41990
Cu110      Cu  0.40659971  0.14526230  0.41342372     0.43880
N111        N  0.41329837  0.20207629  0.39158255    -0.34110
N112        N  0.42898109  0.17531953  0.39723921    -0.28370
C113        C  0.45714926  0.16926346  0.38919429    -0.04470
C114        C  0.45913639  0.19366843  0.37810145     0.07750
C115        C  0.43114969  0.21410245  0.38008900     0.01540
H116        H  0.47295583  0.14696059  0.39029497     0.09200
H117        H  0.42174992  0.23288214  0.37224520     0.08270
N118        N  0.37314471  0.12476344  0.42876001    -0.35560
N119        N  0.34036361  0.12345649  0.42634064    -0.27740
C120        C  0.32526742  0.11228797  0.43881202    -0.02980
C121        C  0.34950554  0.10639038  0.44975078     0.05630
C122        C  0.37966039  0.11455377  0.44294494     0.03720
H123        H  0.29829071  0.11108969  0.44016462     0.08830
H124        H  0.40435184  0.11449518  0.44808222     0.07660
N125        N  0.18760156  0.21990701  0.38877084    -0.26730
N126        N  0.16953621  0.19417279  0.38437551    -0.34580
C127        C  0.18138222  0.18262603  0.37118774     0.01610
C128        C  0.20849506  0.20169829  0.36718316     0.07640
C129        C  0.21184107  0.22519400  0.37856283    -0.05460
H130        H  0.16985148  0.16315332  0.36456174     0.08310
H131        H  0.22936450  0.24563566  0.37895570     0.09510
Cu132      Cu  0.12440965  0.18202218  0.39404323     0.44170
Cu133      Cu  0.17437822  0.24886854  0.40725200     0.41990
Cu134      Cu  0.08426199  0.25081459  0.41322129     0.43880
N135        N  0.07396729  0.19316631  0.39220080    -0.34110
N136        N  0.06003241  0.22119928  0.39743916    -0.28370
C137        C  0.03233867  0.22860417  0.38920649    -0.04470
C138        C  0.02876797  0.20371616  0.37845673     0.07750
C139        C  0.05531258  0.18159044  0.38083381     0.01540
H140        H  0.01811130  0.25199286  0.38990850     0.09200
H141        H  0.06357404  0.16192222  0.37321741     0.08270
N142        N  0.11876357  0.26976946  0.42851308    -0.35560
N143        N  0.15159015  0.26926712  0.42617460    -0.27740
C144        C  0.16727864  0.27975624  0.43866832    -0.02980
C145        C  0.14331824  0.28705728  0.44951207     0.05630
C146        C  0.11276834  0.28046705  0.44263556     0.03720
H147        H  0.19430680  0.27961464  0.44010273     0.08830
H148        H  0.08807733  0.28192270  0.44768726     0.07660
C149        C  0.00979167  0.20583995  0.36408647     0.01130
C150        C  0.47865245  0.19210972  0.36388587     0.01130
N151        N  0.29134033  0.14528297  0.57759426    -0.26730
N152        N  0.29428516  0.12035179  0.58723811    -0.34580
C153        C  0.28203495  0.13016087  0.60052166     0.01610
C154        C  0.27072033  0.16336516  0.59953205     0.07640
C155        C  0.27890094  0.17264151  0.58484758    -0.05460
H156        H  0.28066758  0.11360483  0.61013682     0.08310
H157        H  0.27596959  0.19705072  0.57967129     0.09510
Cu158      Cu  0.30863672  0.07211475  0.58154390     0.44170
Cu159      Cu  0.29674572  0.13390700  0.55497786     0.41990
Cu160      Cu  0.26943377  0.04223622  0.55023154     0.43880
N161        N  0.29196776  0.02385097  0.58050108    -0.34110
N162        N  0.27052487  0.01410967  0.57014692    -0.28370
C163        C  0.25224865  0.48864355  0.57586585    -0.04470
C164        C  0.26360828  0.48206972  0.59049188     0.07750
C165        C  0.28909784  0.00472879  0.59270148     0.01540
H166        H  0.23053311  0.47813579  0.57039133     0.09200
H167        H  0.30139412  0.01030051  0.60325784     0.08270
N168        N  0.28934170  0.07377663  0.53361819    -0.35560
N169        N  0.29931494  0.10518100  0.53542185    -0.27740
C170        C  0.31312971  0.11585041  0.52254105    -0.02980
C171        C  0.31212532  0.09019563  0.51207631     0.05630
C172        C  0.29677224  0.06397050  0.51949291     0.03720
H173        H  0.32301264  0.14072522  0.52093667     0.08830
H174        H  0.29218732  0.03912148  0.51511432     0.07660
N175        N  0.20214722  0.24915796  0.57761689    -0.26730
N176        N  0.19817889  0.27386392  0.58728076    -0.34580
C177        C  0.21131985  0.26462696  0.60052171     0.01610
C178        C  0.22441237  0.23204823  0.59948586     0.07640
C179        C  0.21627876  0.22244660  0.58480901    -0.05460
H180        H  0.21205769  0.28120349  0.61013848     0.08310
H181        H  0.22022789  0.19827891  0.57957986     0.09510
Cu182      Cu  0.18140433  0.32140026  0.58157421     0.44170
Cu183      Cu  0.19559378  0.26041997  0.55501154     0.41990
Cu184      Cu  0.22005041  0.35286535  0.55041948     0.43880
N185        N  0.19576272  0.37043311  0.58045406    -0.34110
N186        N  0.21698862  0.38103963  0.57024031    -0.28370
C187        C  0.23387150  0.40744363  0.57599984    -0.04470
C188        C  0.22183381  0.41368778  0.59050379     0.07750
C189        C  0.19738584  0.38987539  0.59259823     0.01540
H190        H  0.25522951  0.41881907  0.57066271     0.09200
H191        H  0.18509922  0.38387425  0.60307499     0.08270
N192        N  0.20161879  0.32077849  0.53366929    -0.35560
N193        N  0.19224163  0.28916895  0.53543902    -0.27740
C194        C  0.17890596  0.27821620  0.52246901    -0.02980
C195        C  0.17976753  0.30386177  0.51198884     0.05630
C196        C  0.19443156  0.33039248  0.51946823     0.03720
H197        H  0.16949772  0.25316585  0.52079229     0.08830
H198        H  0.19869833  0.35528755  0.51506165     0.07660
C199        C  0.24812080  0.46418841  0.60342286     0.01130
C200        C  0.23615234  0.43242682  0.60348186     0.01130
N201        N  0.45480410  0.14683639  0.13508108    -0.26730
N202        N  0.44974582  0.12274803  0.12529844    -0.34580
C203        C  0.46270177  0.13153746  0.11207117     0.01610
C204        C  0.47674958  0.16319717  0.11328562     0.07640
C205        C  0.46957477  0.17277799  0.12806120    -0.05460
H206        H  0.46252481  0.11531758  0.10232474     0.08310
H207        H  0.47452519  0.19637746  0.13347473     0.09510
Cu208      Cu  0.43137569  0.07648044  0.13101193     0.44170
Cu209      Cu  0.44775886  0.13543824  0.15746638     0.41990
Cu210      Cu  0.46349057  0.04075435  0.16358184     0.43880
N211        N  0.44360366  0.02640178  0.13251728    -0.34110
N212        N  0.46283712  0.01380205  0.14329592    -0.28370
C213        C  0.47983537  0.48656630  0.13775676    -0.04470
C214        C  0.46993611  0.48195747  0.12278789     0.07750
C215        C  0.44649083  0.00749177  0.12024616     0.01540
H216        H  0.49993389  0.47344940  0.14366037     0.09200
H217        H  0.43580236  0.01484961  0.10950604     0.08270
N218        N  0.44648917  0.07607538  0.17966710    -0.35560
N219        N  0.44117487  0.10868167  0.17721439    -0.27740
C220        C  0.42986973  0.12321129  0.18986114    -0.02980
C221        C  0.42769969  0.09904057  0.20090086     0.05630
C222        C  0.43820669  0.06934112  0.19406856     0.03720
H223        H  0.42372018  0.14970710  0.19091745     0.08830
H224        H  0.44043538  0.04480859  0.19926941     0.07660
N225        N  0.04489859  0.24826978  0.13461463    -0.26730
N226        N  0.04576670  0.27349110  0.12509477    -0.34580
C227        C  0.03194844  0.26424438  0.11207966     0.01610
C228        C  0.02183277  0.23106403  0.11311314     0.07640
C229        C  0.03213190  0.22126977  0.12752986    -0.05460
H230        H  0.02897688  0.28106884  0.10259665     0.08310
H231        H  0.03046721  0.19670936  0.13260543     0.09510
Cu232      Cu  0.06022353  0.32116758  0.13083055     0.44170
Cu233      Cu  0.05403728  0.25916977  0.15697936     0.41990
Cu234      Cu  0.02236660  0.35031611  0.16285662     0.43880
N235        N  0.04318732  0.36982779  0.13259466    -0.34110
N236        N  0.02168262  0.37922738  0.14308092    -0.28370
C237        C  0.00228535  0.40491756  0.13756814    -0.04470
C238        C  0.01311979  0.41211605  0.12298081     0.07750
C239        C  0.03941389  0.38951062  0.12057092     0.01540
H240        H  0.98020175  0.41512032  0.14312094     0.09200
H241        H  0.05150119  0.38421179  0.10992236     0.08270
N242        N  0.04457122  0.31797626  0.17905144    -0.35560
N243        N  0.05707502  0.28723414  0.17664481    -0.27740
C244        C  0.07113393  0.27549129  0.18941773    -0.02980
C245        C  0.06738611  0.29959993  0.20041775     0.05630
C246        C  0.05012348  0.32602914  0.19357045     0.03720
H247        H  0.08185023  0.25047068  0.19078284     0.08830
H248        H  0.04176917  0.34923028  0.19882133     0.07660
C249        C  0.48482067  0.46241249  0.10999011     0.01130
C250        C  0.99647557  0.43003684  0.11012153     0.01130
N251        N  0.04486409  0.24446397  0.32967294    -0.26730
N252        N  0.07031798  0.24577357  0.33908122    -0.34580
C253        C  0.06149252  0.23205521  0.35217067     0.01610
C254        C  0.02837229  0.22150018  0.35124550     0.07640
C255        C  0.01815836  0.23152635  0.33685872    -0.05460
H256        H  0.07855070  0.22935495  0.36160440     0.08310
H257        H  0.49352604  0.22951131  0.33184724     0.09510
Cu258      Cu  0.11753935  0.26070738  0.33276092     0.44170
Cu259      Cu  0.05524361  0.25279617  0.30726291     0.41990
Cu260      Cu  0.14625137  0.22306949  0.30002594     0.43880
N261        N  0.16663831  0.24550840  0.33010490    -0.34110
N262        N  0.17576780  0.22360880  0.31971656    -0.28370
C263        C  0.20172210  0.20454597  0.32524497    -0.04470
C264        C  0.20946280  0.21608728  0.33969006     0.07750
C265        C  0.18693827  0.24249629  0.34197945     0.01540
H266        H  0.21168334  0.18215100  0.31985354     0.09200
H267        H  0.18183175  0.25490547  0.35257542     0.08270
N268        N  0.11198620  0.24359717  0.28410062    -0.35560
N269        N  0.08122825  0.25518829  0.28709978    -0.27740
C270        C  0.06783252  0.26903034  0.27465581    -0.02980
C271        C  0.09055795  0.26581611  0.26296546     0.05630
C272        C  0.11842340  0.24964612  0.26944962     0.03720
H273        H  0.04321923  0.28098054  0.27438504     0.08830
H274        H  0.14167394  0.24244512  0.26395526     0.07660
N275        N  0.44415018  0.15479630  0.32886964    -0.26730
N276        N  0.41990616  0.15006957  0.33859296    -0.34580
C277        C  0.42884909  0.16265924  0.35189701     0.01610
C278        C  0.46079838  0.17611734  0.35083831     0.07640
C279        C  0.47035576  0.16894807  0.33603962    -0.05460
H280        H  0.41255682  0.16259301  0.36160636     0.08310
H281        H  0.49416633  0.17347082  0.33073153     0.09510
Cu282      Cu  0.37337681  0.13231540  0.33280970     0.44170
Cu283      Cu  0.43277372  0.14755037  0.30638010     0.41990
Cu284      Cu  0.33789732  0.16286404  0.30000339     0.43880
N285        N  0.32342772  0.14518802  0.33121811    -0.34110
N286        N  0.31088546  0.16367056  0.32018331    -0.28370
C287        C  0.28373087  0.18120469  0.32545564    -0.04470
C288        C  0.27918151  0.17253286  0.34055102     0.07750
C289        C  0.30460759  0.14916477  0.34344284     0.01540
H290        H  0.27064349  0.20085516  0.31926009     0.09200
H291        H  0.31193038  0.13921483  0.35432192     0.08270
N292        N  0.37317966  0.14500233  0.28417559    -0.35560
N293        N  0.40590264  0.14005717  0.28659385    -0.27740
C294        C  0.42033423  0.12880129  0.27389807    -0.02980
C295        C  0.39586892  0.12596192  0.26300007     0.05630
C296        C  0.36624627  0.13642939  0.26982170     0.03720
H297        H  0.44699901  0.12372809  0.27260029     0.08830
H298        H  0.34171105  0.13884336  0.26459312     0.07660
C299        C  0.22706707  0.19960224  0.35268682     0.01130
C300        C  0.25960363  0.18841048  0.35307578     0.01130
N301        N  0.05246254  0.41987228  0.88945341    -0.26730
N302        N  0.06876654  0.44674791  0.88502159    -0.34580
C303        C  0.05541334  0.45807762  0.87206865     0.01610
C304        C  0.02923260  0.43765414  0.86819746     0.07640
C305        C  0.02785575  0.41360921  0.87944767    -0.05460
H306        H  0.06566927  0.47811002  0.86536288     0.08310
H307        H  0.51171948  0.39204952  0.87979281     0.09510
Cu308      Cu  0.11445098  0.46092814  0.89355137     0.44170
Cu309      Cu  0.06877909  0.39086259  0.90755782     0.41990
Cu310      Cu  0.15955725  0.39616904  0.91230227     0.43880
N311        N  0.16493730  0.45226489  0.89031249    -0.34110
N312        N  0.18109058  0.42569372  0.89584830    -0.28370
C313        C  0.20872929  0.41952816  0.88748586    -0.04470
C314        C  0.20982941  0.44366021  0.87626056     0.07750
C315        C  0.18188409  0.46404519  0.87849069     0.01540
H316        H  0.22479424  0.39739609  0.88853775     0.09200
H317        H  0.17200852  0.48278238  0.87074070     0.08270
N318        N  0.12758941  0.37623703  0.92825923    -0.35560
N319        N  0.09475970  0.37324089  0.92635182    -0.27740
C320        C  0.08116014  0.36248679  0.93928201    -0.02980
C321        C  0.10654130  0.35904515  0.94986408     0.05630
C322        C  0.13560033  0.36804130  0.94252024     0.03720
H323        H  0.05445618  0.36009233  0.94120119     0.08830
H324        H  0.16043063  0.37019319  0.94739484     0.07660
N325        N  0.43867480  0.96908938  0.88973804    -0.26730
N326        N  0.42044607  0.94389750  0.88485110    -0.34580
C327        C  0.43277938  0.93293194  0.87166958     0.01610
C328        C  0.46033945  0.95179636  0.86814432     0.07640
C329        C  0.46348937  0.97459823  0.87981839    -0.05460
H330        H  0.42108498  0.91427222  0.86463836     0.08310
H331        H  0.48108635  0.99493327  0.88053899     0.09510
Cu332      Cu  0.37419591  0.93209933  0.89346886     0.44170
Cu333      Cu  0.42459420  0.99747775  0.90831033     0.41990
Cu334      Cu  0.33346098  0.00065388  0.91182545     0.43880
N335        N  0.32398173  0.94341910  0.89069926    -0.34110
N336        N  0.30977477  0.97135357  0.89587635    -0.28370
C337        C  0.28231197  0.97874918  0.88750807    -0.04470
C338        C  0.27920347  0.95397625  0.87668599     0.07750
C339        C  0.30580182  0.93193353  0.87915565     0.01540
H340        H  0.26792530  0.00204420  0.88819982     0.09200
H341        H  0.31430633  0.91227160  0.87158889     0.08270
N342        N  0.36623960  0.01830643  0.92805722    -0.35560
N343        N  0.39937339  0.01734034  0.92677018    -0.27740
C344        C  0.41313185  0.02713035  0.93984761    -0.02980
C345        C  0.38746510  0.03430823  0.94990686     0.05630
C346        C  0.35808528  0.02851958  0.94200822     0.03720
H347        H  0.43986066  0.02678754  0.94217001     0.08830
H348        H  0.33263949  0.03026767  0.94624058     0.07660
C349        C  0.22925548  0.44235594  0.86202808     0.01130
C350        C  0.26035631  0.45613369  0.86228423     0.01130
N351        N  0.46711618  0.50369585  0.07398418    -0.26730
N352        N  0.49415100  0.01969271  0.07850899    -0.34580
C353        C  0.50509854  0.50636679  0.09153283     0.01610
C354        C  0.48424564  0.48051353  0.09534994     0.07640
C355        C  0.46034746  0.47933028  0.08399406    -0.05460
H356        H  0.52518594  0.01642023  0.09830832     0.08310
H357        H  0.43854959  0.46350737  0.08357607     0.09510
Cu358      Cu  0.50918203  0.06490790  0.06983824     0.44170
Cu359      Cu  0.43861967  0.02014805  0.05573505     0.41990
Cu360      Cu  0.44504669  0.11071486  0.05078743     0.43880
N361        N  0.50204724  0.11579088  0.07244964    -0.34110
N362        N  0.47571594  0.13226865  0.06684713    -0.28370
C363        C  0.47032698  0.16038648  0.07498381    -0.04470
C364        C  0.49470525  0.16149710  0.08613482     0.07750
C365        C  0.51446335  0.13304000  0.08407875     0.01540
H366        H  0.44836085  0.17669609  0.07393233     0.09200
H367        H  0.53292902  0.12299925  0.09193111     0.08270
N368        N  0.42425568  0.07883336  0.03499585    -0.35560
N369        N  0.42119511  0.04605764  0.03690852    -0.27740
C370        C  0.41021496  0.03243993  0.02399976    -0.02980
C371        C  0.40664773  0.05775268  0.01340798     0.05630
C372        C  0.41572338  0.08681801  0.02077447     0.03720
H373        H  0.40766307  0.00575139  0.02211301     0.08830
H374        H  0.41763866  0.11167759  0.01595598     0.07660
N375        N  0.01527181  0.39098986  0.07371216    -0.26730
N376        N  0.99087223  0.37183219  0.07863842    -0.34580
C377        C  0.97994851  0.38348736  0.09195930     0.01610
C378        C  0.99799048  0.41160196  0.09554433     0.07640
C379        C  0.02031675  0.41571107  0.08375536    -0.05460
H380        H  0.96179597  0.37110819  0.09898958     0.08310
H381        H  0.03996937  0.43405051  0.08298955     0.09510
Cu382      Cu  0.98026975  0.32559296  0.06964561     0.44170
Cu383      Cu  0.04331044  0.37832189  0.05481780     0.41990
Cu384      Cu  0.05128674  0.28755305  0.05170566     0.43880
N385        N  0.99308427  0.27566298  0.07202053    -0.34110
N386        N  0.02184401  0.26262660  0.06714266    -0.28370
C387        C  0.02972587  0.23523300  0.07543159    -0.04470
C388        C  0.00441795  0.23091887  0.08587464     0.07750
C389        C  0.98154353  0.25672561  0.08326298     0.01540
H390        H  0.05360139  0.22177700  0.07499274     0.09200
H391        H  0.96119127  0.26434754  0.09063926     0.08270
N392        N  0.06767777  0.32068043  0.03541710    -0.35560
N393        N  0.06443152  0.35373014  0.03642670    -0.27740
C394        C  0.07340996  0.36750713  0.02325622    -0.02980
C395        C  0.08260133  0.34191834  0.01342548     0.05630
C396        C  0.07878386  0.31258696  0.02159913     0.03720
H397        H  0.07124413  0.39405937  0.02073851     0.08830
H398        H  0.08250357  0.28708307  0.01766551     0.07660
C399        C  0.49329438  0.18084267  0.10039687     0.01130
C400        C  0.00656513  0.21213586  0.10025468     0.01130
C401        C  0.37462807  0.03254490  0.99214389     0.24160
C402        C  0.40042396  0.05341991  0.99715476    -0.23950
C403        C  0.42128071  0.06879752  0.98653521     0.19070
C404        C  0.41679625  0.06287003  0.97116407     0.24100
C405        C  0.39106909  0.04185829  0.96612055    -0.23890
C406        C  0.36978476  0.02700965  0.97676011     0.19000
F407        F  0.34520003  0.00593033  0.97235514    -0.13850
F408        F  0.35403708  0.01753001  0.00216551    -0.16210
F409        F  0.43759508  0.07779753  0.96120607    -0.16220
F410        F  0.44698758  0.08840401  0.99104841    -0.13850
C411        C  0.07956739  0.32102151  0.98675881     0.24160
C412        C  0.09042233  0.34523553  0.99719171    -0.23950
C413        C  0.10767554  0.37341504  0.99187098     0.19070
C414        C  0.11367406  0.37742744  0.97648720     0.24100
C415        C  0.10220992  0.35358508  0.96612809    -0.23890
C416        C  0.08520117  0.32536126  0.97135816     0.19000
F417        F  0.07407606  0.30193452  0.96152240    -0.13850
F418        F  0.06222208  0.29382726  0.99132286    -0.16210
F419        F  0.12950443  0.40534939  0.97165009    -0.16220
F420        F  0.11892497  0.39708435  0.00154988    -0.13850
C421        C  0.04660641  0.28924495  0.22619528     0.24160
C422        C  0.07376288  0.29442080  0.21657700    -0.23950
C423        C  0.10668634  0.29117290  0.22219638     0.19070
C424        C  0.11235933  0.28274047  0.23733993     0.24100
C425        C  0.08507268  0.27640048  0.24700608    -0.23890
C426        C  0.05207056  0.27987403  0.24115140     0.19000
F427        F  0.02478343  0.27254597  0.24955907    -0.13850
F428        F  0.01460478  0.29148253  0.22085294    -0.16210
F429        F  0.14451812  0.28108966  0.24247413    -0.16220
F430        F  0.13333082  0.29616748  0.21299871    -0.13850
C431        C  0.43184735  0.13355603  0.22413342     0.24160
C432        C  0.41894765  0.10522981  0.21682001    -0.23950
C433        C  0.39729024  0.08395639  0.22472073     0.19070
C434        C  0.38859608  0.09117241  0.23969788     0.24100
C435        C  0.40205796  0.11927533  0.24695746    -0.23890
C436        C  0.42367288  0.14032326  0.23906395     0.19000
F437        F  0.43685891  0.16766047  0.24585906    -0.13850
F438        F  0.45328684  0.15427787  0.21696030    -0.16210
F439        F  0.36786991  0.07032947  0.24721951    -0.16220
F440        F  0.38409036  0.05670266  0.21787240    -0.13850
C441        C  0.13059694  0.28028661  0.47703058     0.24160
C442        C  0.15004610  0.29460456  0.46556840    -0.23950
C443        C  0.17774314  0.31420220  0.46960482     0.19070
C444        C  0.18670090  0.31820706  0.48471893     0.24100
C445        C  0.16827566  0.30251265  0.49612579    -0.23890
C446        C  0.13968257  0.28414357  0.49214740     0.19000
F447        F  0.12049680  0.26974336  0.50289277    -0.13850
F448        F  0.10380801  0.26102664  0.47365152    -0.16210
F449        F  0.21447415  0.33604097  0.48810102    -0.16220
F450        F  0.19646246  0.32928386  0.45888671    -0.13850
C451        C  0.30667226  0.07449998  0.48484051     0.24160
C452        C  0.32412387  0.09129076  0.49628934    -0.23950
C453        C  0.35220861  0.11048001  0.49238965     0.19070
C454        C  0.36153346  0.11420661  0.47731586     0.24100
C455        C  0.34295671  0.09880974  0.46581038    -0.23890
C456        C  0.31598414  0.07823511  0.46978117     0.19000
F457        F  0.29822241  0.06198884  0.45903772    -0.13850
F458        F  0.27942780  0.05582623  0.48808257    -0.16210
F459        F  0.38761867  0.13440090  0.47400483    -0.16220
F460        F  0.37065980  0.12587201  0.50315504    -0.13850
C461        C  0.12256390  0.36985277  0.71980957     0.24160
C462        C  0.14877005  0.34784858  0.71547675    -0.23950
C463        C  0.17058419  0.33457331  0.72652057     0.19070
C464        C  0.16711381  0.34427875  0.74157173     0.24100
C465        C  0.14176020  0.36762765  0.74589765    -0.23890
C466        C  0.11896725  0.37958403  0.73484799     0.19000
F467        F  0.09404863  0.40194987  0.73835836    -0.13850
F468        F  0.10058054  0.38229196  0.70939399    -0.16210
F469        F  0.18875442  0.33072988  0.75184369    -0.16220
F470        F  0.19645682  0.31357842  0.72265277    -0.13850
C471        C  0.36575663  0.05333797  0.72380851     0.24160
C472        C  0.33790589  0.04230822  0.71555531    -0.23950
C473        C  0.31305848  0.02372685  0.72282187     0.19070
C474        C  0.31622298  0.01571951  0.73804079     0.24100
C475        C  0.34460304  0.02566993  0.74625001    -0.23890
C476        C  0.36932495  0.04470211  0.73904492     0.19000
F477        F  0.39658000  0.05535120  0.74680069    -0.13850
F478        F  0.38990455  0.07155191  0.71700555    -0.16210
F479        F  0.29201731  0.99716087  0.74461305    -0.16220
F480        F  0.28549451  0.01345199  0.71516756    -0.13850
N481        N  0.29618712  0.49465412  0.82799575    -0.26730
N482        N  0.32100480  0.49695704  0.83770709    -0.34580
C483        C  0.31170652  0.48356187  0.85078156     0.01610
C484        C  0.27894348  0.47221866  0.84956399     0.07640
C485        C  0.26932794  0.48157516  0.83500901    -0.05460
H486        H  0.32830503  0.48150799  0.86040601     0.08310
H487        H  0.24501537  0.47911176  0.82975751     0.09510
Cu488      Cu  0.36854026  0.51228663  0.83224576     0.44170
Cu489      Cu  0.30738712  0.50118144  0.80550312     0.41990
Cu490      Cu  0.40044958  0.47589398  0.80034914     0.43880
N491        N  0.41764432  0.49631102  0.83096362    -0.34110
N492        N  0.42821342  0.47553137  0.82039805    -0.28370
C493        C  0.45415102  0.45664292  0.82600700    -0.04470
C494        C  0.46028719  0.46704700  0.84076330     0.07750
C495        C  0.43679136  0.49255058  0.84317869     0.01540
H496        H  0.46522945  0.43511354  0.82034982     0.09200
H497        H  0.43069706  0.50413763  0.85385914     0.08270
N498        N  0.36741433  0.49553373  0.78388320    -0.35560
N499        N  0.33526030  0.50408150  0.78582534    -0.27740
C500        C  0.32275107  0.51639956  0.77286485    -0.02980
C501        C  0.34797919  0.51604977  0.76224595     0.05630
C502        C  0.37598745  0.50281623  0.76960050     0.03720
H503        H  0.29707061  0.52526767  0.77134546     0.08830
H504        H  0.40068030  0.49828220  0.76485635     0.07660
N505        N  0.19455198  0.90569198  0.82691924    -0.26730
N506        N  0.17042333  0.90066957  0.83668605    -0.34580
C507        C  0.17954018  0.91289476  0.85003417     0.01610
C508        C  0.21144509  0.92638967  0.84897330     0.07640
C509        C  0.22087698  0.91948568  0.83413868    -0.05460
H510        H  0.16332850  0.91267735  0.85977129     0.08310
H511        H  0.24468642  0.92392544  0.82882389     0.09510
Cu512      Cu  0.12351981  0.88343040  0.83122194     0.44170
Cu513      Cu  0.18311209  0.90060898  0.80426948     0.41990
Cu514      Cu  0.08872647  0.92003060  0.79999023     0.43880
N515        N  0.07382844  0.89767406  0.83049700    -0.34110
N516        N  0.06176427  0.91823300  0.82011507    -0.28370
C517        C  0.03505454  0.93549099  0.82593007    -0.04470
C518        C  0.03009947  0.92433501  0.84065749     0.07750
C519        C  0.05504507  0.90006013  0.84282717     0.01540
H520        H  0.02261805  0.95653435  0.82042034     0.09200
H521        H  0.06207931  0.88831458  0.85338646     0.08270
N522        N  0.12167562  0.90213066  0.78326063    -0.35560
N523        N  0.15436486  0.89564039  0.78478973    -0.27740
C524        C  0.16625342  0.88276256  0.77184686    -0.02980
C525        C  0.14000425  0.88039981  0.76163551     0.05630
C526        C  0.11215652  0.89299572  0.76932453     0.03720
H527        H  0.19233723  0.87572613  0.77009928     0.08830
H528        H  0.08647248  0.89450258  0.76532564     0.07660
C529        C  0.01091279  0.93880782  0.85360807     0.01130
C530        C  0.47866070  0.95078482  0.85358397     0.01130
N531        N  0.21694686  0.89105630  0.63907165    -0.26730
N532        N  0.24433475  0.87430159  0.63485078    -0.34580
C533        C  0.25591137  0.88759143  0.62205013     0.01610
C534        C  0.23510863  0.91423411  0.61807825     0.07640
C535        C  0.21059205  0.91591889  0.62910613    -0.05460
H536        H  0.27636992  0.87699197  0.61548356     0.08310
H537        H  0.18863312  0.93238716  0.62928357     0.09510
Cu538      Cu  0.25891215  0.82834792  0.64354646     0.44170
Cu539      Cu  0.18762285  0.87494009  0.65683150     0.41990
Cu540      Cu  0.19517716  0.78461700  0.66291911     0.43880
N541        N  0.25101899  0.77792902  0.64068889    -0.34110
N542        N  0.22485665  0.76242404  0.64636340    -0.28370
C543        C  0.21887157  0.73489282  0.63802466    -0.04470
C544        C  0.24269368  0.73315002  0.62669160     0.07750
C545        C  0.26275203  0.76058562  0.62884447     0.01540
H546        H  0.19697446  0.71938843  0.63915880     0.09200
H547        H  0.28106281  0.76999699  0.62099260     0.08270
N548        N  0.17380227  0.81793190  0.67831442    -0.35560
N549        N  0.16995596  0.85055518  0.67578598    -0.27740
C550        C  0.15828075  0.86548961  0.68832457    -0.02980
C551        C  0.15505358  0.84129625  0.69936637     0.05630
C552        C  0.16516986  0.81140722  0.69263958     0.03720
H553        H  0.15514912  0.89238129  0.68969721     0.08830
H554        H  0.16769208  0.78702743  0.69796330     0.07660
N555        N  0.26916794  0.00401993  0.63910363    -0.26730
N556        N  0.24338703  0.52295096  0.63465979    -0.34580
C557        C  0.23111847  0.01067889  0.62174148     0.01610
C558        C  0.24980270  0.98238203  0.61799103     0.07640
C559        C  0.27380531  0.97876956  0.62922555    -0.05780
H560        H  0.21182591  0.52291473  0.61497587     0.08310
H561        H  0.29445130  0.96067747  0.62959047     0.09510
Cu562      Cu  0.23289582  0.56968092  0.64358435     0.44170
Cu563      Cu  0.29930055  0.51799443  0.65690995     0.41990
Cu564      Cu  0.30280520  0.60839360  0.66212451     0.43880
N565        N  0.24460671  0.61937836  0.64103362    -0.34110
N566        N  0.27273949  0.63260028  0.64606545    -0.28370
C567        C  0.27970979  0.65970897  0.63759884    -0.04470
C568        C  0.25446652  0.66361541  0.62691348     0.07750
C569        C  0.23259898  0.63789093  0.62956266     0.01540
H570        H  0.30292659  0.67338024  0.63817833     0.09200
H571        H  0.21256286  0.63009763  0.62215462     0.08270
N572        N  0.32111692  0.57355155  0.67778009    -0.35560
N573        N  0.31952436  0.54070528  0.67568035    -0.27740
C574        C  0.32777756  0.52483007  0.68851714    -0.02980
C575        C  0.33504516  0.54863091  0.69926618     0.05630
C576        C  0.33072382  0.57933222  0.69209482     0.03720
H577        H  0.32601851  0.49800028  0.69023514     0.08830
H578        H  0.33139748  0.60391878  0.69726188     0.07660
C579        C  0.24114806  0.71382804  0.61242584     0.01130
C580        C  0.25559354  0.68248022  0.61251358     0.01130
N581        N  0.30006489  0.67113329  0.38928458    -0.26730
N582        N  0.31683268  0.69756295  0.38471132    -0.34580
C583        C  0.30384107  0.70852561  0.37161020     0.01610
C584        C  0.27737022  0.68829462  0.36783114     0.07640
C585        C  0.27553883  0.66476400  0.37927282    -0.05460
H586        H  0.31456955  0.72801934  0.36474036     0.08310
H587        H  0.25928071  0.64330443  0.37970420     0.09510
Cu588      Cu  0.36247654  0.71094459  0.39364361     0.44170
Cu589      Cu  0.31608354  0.64251206  0.40746379     0.41990
Cu590      Cu  0.40660037  0.64526335  0.41342333     0.43880
N591        N  0.41329833  0.70207719  0.39158211    -0.34110
N592        N  0.42898139  0.67532068  0.39723881    -0.28370
C593        C  0.45714962  0.66926488  0.38919391    -0.04470
C594        C  0.45913642  0.69366976  0.37810102     0.07750
C595        C  0.43114947  0.71410345  0.38008853     0.01540
H596        H  0.47295648  0.64696221  0.39029463     0.09200
H597        H  0.42174946  0.73288296  0.37224469     0.08270
N598        N  0.37314592  0.62476458  0.42875983    -0.35560
N599        N  0.34036478  0.62345714  0.42634066    -0.27740
C600        C  0.32526913  0.61228884  0.43881222    -0.02980
C601        C  0.34950769  0.60639200  0.44975087     0.05630
C602        C  0.37966218  0.61455553  0.44294479     0.03720
H603        H  0.29829249  0.61109019  0.44016502     0.08830
H604        H  0.40435377  0.61449750  0.44808193     0.07660
N605        N  0.18760144  0.71990676  0.38877043    -0.26730
N606        N  0.16953608  0.69417252  0.38437514    -0.34580
C607        C  0.18138217  0.68262556  0.37118743     0.01610
C608        C  0.20849507  0.70169773  0.36718285     0.07640
C609        C  0.21184104  0.72519358  0.37856245    -0.05460
H610        H  0.16985146  0.66315278  0.36456146     0.08310
H611        H  0.22936449  0.74563522  0.37895529     0.09510
Cu612      Cu  0.12440950  0.68202213  0.39404290     0.44170
Cu613      Cu  0.17437814  0.74886862  0.40725143     0.41990
Cu614      Cu  0.08426212  0.75081484  0.41322099     0.43880
N615        N  0.07396718  0.69316653  0.39220054    -0.34110
N616        N  0.06003245  0.72119956  0.39743892    -0.28370
C617        C  0.03233880  0.72860468  0.38920623    -0.04470
C618        C  0.02876799  0.70371676  0.37845645     0.07750
C619        C  0.05531243  0.68159084  0.38083354     0.01540
H620        H  0.01811161  0.75199348  0.38990824     0.09200
H621        H  0.06357381  0.66192262  0.37321711     0.08270
N622        N  0.11876391  0.76976958  0.42851267    -0.35560
N623        N  0.15159044  0.76926719  0.42617407    -0.27740
C624        C  0.16727922  0.77975586  0.43866779    -0.02980
C625        C  0.14331906  0.78705664  0.44951166     0.05630
C626        C  0.11276899  0.78046677  0.44263524     0.03720
H627        H  0.19430740  0.77961392  0.44010211     0.08830
H628        H  0.08807809  0.78192222  0.44768705     0.07660
C629        C  0.00979187  0.70584084  0.36408617     0.01130
C630        C  0.47865257  0.69211109  0.36388546     0.01130
N631        N  0.29134433  0.64528404  0.57759496    -0.26730
N632        N  0.29429018  0.62035293  0.58723880    -0.34580
C633        C  0.28203908  0.63016133  0.60052230     0.01610
C634        C  0.27072280  0.66336510  0.59953267     0.07640
C635        C  0.27890338  0.67264193  0.58484825    -0.05460
H636        H  0.28067237  0.61360517  0.61013743     0.08310
H637        H  0.27597106  0.69705107  0.57967199     0.09510
Cu638      Cu  0.30864482  0.57211670  0.58154461     0.44170
Cu639      Cu  0.29675076  0.63390852  0.55497854     0.41990
Cu640      Cu  0.26944234  0.54223686  0.55023240     0.43880
N641        N  0.29197866  0.52385191  0.58050160    -0.34110
N642        N  0.27053551  0.51411008  0.57014766    -0.28370
C643        C  0.25223695  0.98864374  0.57586498    -0.04470
C644        C  0.26359552  0.98206989  0.59049117     0.07750
C645        C  0.28911010  0.50472933  0.59270195     0.01540
H646        H  0.23052156  0.97813626  0.57039022     0.09200
H647        H  0.30140675  0.51030135  0.60325818     0.08270
N648        N  0.28934866  0.57377786  0.53361893    -0.35560
N649        N  0.29932076  0.60518263  0.53542249    -0.27740
C650        C  0.31313462  0.61585249  0.52254156    -0.02980
C651        C  0.31213078  0.59019756  0.51207685     0.05630
C652        C  0.29677905  0.56397188  0.51949362     0.03720
H653        H  0.32301644  0.64072772  0.52093705     0.08830
H654        H  0.29219489  0.53912263  0.51511512     0.07660
N655        N  0.20214673  0.74915401  0.57761670    -0.26730
N656        N  0.19817668  0.77385998  0.58728044    -0.34580
C657        C  0.21131690  0.76462367  0.60052163     0.01610
C658        C  0.22441087  0.73204544  0.59948607     0.07640
C659        C  0.21627871  0.72244327  0.58480911    -0.05460
H660        H  0.21205345  0.78120043  0.61013834     0.08310
H661        H  0.22022930  0.69827568  0.57958008     0.09510
Cu662      Cu  0.18140125  0.82139581  0.58157346     0.44170
Cu663      Cu  0.19559502  0.76041553  0.55501118     0.41990
Cu664      Cu  0.22004923  0.85286176  0.55041936     0.43880
N665        N  0.19575676  0.87042959  0.58045312    -0.34110
N666        N  0.21698313  0.88103690  0.57023974    -0.28370
C667        C  0.23386359  0.90744239  0.57599929    -0.04470
C668        C  0.22182388  0.91368663  0.59050287     0.07750
C669        C  0.19737720  0.88987281  0.59259707     0.01540
H670        H  0.25522148  0.91881887  0.57066251     0.09200
H671        H  0.18508992  0.88387149  0.60307365     0.08270
N672        N  0.20162005  0.82077419  0.53366901    -0.35560
N673        N  0.19224351  0.78916441  0.53543859    -0.27740
C674        C  0.17890850  0.77821162  0.52246845    -0.02980
C675        C  0.17976991  0.80385745  0.51198839     0.05630
C676        C  0.19443314  0.83038830  0.51946795     0.03720
H677        H  0.16950053  0.75316120  0.52079159     0.08830
H678        H  0.19869925  0.85528363  0.51506153     0.07660
C679        C  0.24810692  0.96418907  0.60342201     0.01130
C680        C  0.23614034  0.93242676  0.60348105     0.01130
N681        N  0.45480388  0.64683550  0.13508114    -0.26730
N682        N  0.44974571  0.62274722  0.12529845    -0.34580
C683        C  0.46270169  0.63153684  0.11207121     0.01610
C684        C  0.47674942  0.66319657  0.11328575     0.07640
C685        C  0.46957455  0.67277721  0.12806135    -0.05460
H686        H  0.46252483  0.61531706  0.10232475     0.08310
H687        H  0.47452493  0.69637659  0.13347495     0.09510
Cu688      Cu  0.43137582  0.57647946  0.13101184     0.44170
Cu689      Cu  0.44775857  0.63543712  0.15746639     0.41990
Cu690      Cu  0.46349070  0.54075330  0.16358179     0.43880
N691        N  0.44360411  0.52640085  0.13251716    -0.34110
N692        N  0.46283758  0.51380118  0.14329581    -0.28370
C693        C  0.47983469  0.98656703  0.13775687    -0.04470
C694        C  0.46993531  0.98195819  0.12278802     0.07750
C695        C  0.44649147  0.50749093  0.12024603     0.01540
H696        H  0.49993316  0.97345002  0.14366048     0.09200
H697        H  0.43580302  0.51484875  0.10950590     0.08270
N698        N  0.44648897  0.57607417  0.17966704    -0.35560
N699        N  0.44117450  0.60868043  0.17721433    -0.27740
C700        C  0.42986923  0.62321000  0.18986106    -0.02980
C701        C  0.42769929  0.59903929  0.20090078     0.05630
C702        C  0.43820647  0.56933987  0.19406850     0.03720
H703        H  0.42371961  0.64970579  0.19091737     0.08830
H704        H  0.44043533  0.54480737  0.19926937     0.07660
N705        N  0.04489770  0.74826999  0.13461486    -0.26730
N706        N  0.04576545  0.77349134  0.12509501    -0.34580
C707        C  0.03194719  0.76424447  0.11207993     0.01610
C708        C  0.02183193  0.73106398  0.11311341     0.07640
C709        C  0.03213126  0.72126983  0.12753011    -0.05460
H710        H  0.02897546  0.78106889  0.10259691     0.08310
H711        H  0.03046693  0.69670937  0.13260568     0.09510
Cu712      Cu  0.06022206  0.82116794  0.13083072     0.44170
Cu713      Cu  0.05403672  0.75917011  0.15697953     0.41990
Cu714      Cu  0.02236543  0.85031645  0.16285678     0.43880
N715        N  0.04318604  0.86982823  0.13259485    -0.34110
N716        N  0.02168136  0.87922782  0.14308111    -0.28370
C717        C  0.00228412  0.90491805  0.13756835    -0.04470
C718        C  0.01311859  0.91211658  0.12298103     0.07750
C719        C  0.03941267  0.88951113  0.12057113     0.01540
H720        H  0.98020053  0.91512083  0.14312116     0.09200
H721        H  0.05149997  0.88421229  0.10992256     0.08270
N722        N  0.04457060  0.81797678  0.17905151    -0.35560
N723        N  0.05707464  0.78723475  0.17664488    -0.27740
C724        C  0.07113393  0.77549211  0.18941774    -0.02980
C725        C  0.06738607  0.79960077  0.20041775     0.05630
C726        C  0.05012306  0.82602978  0.19357049     0.03720
H727        H  0.08185044  0.75047158  0.19078284     0.08830
H728        H  0.04176861  0.84923086  0.19882138     0.07660
C729        C  0.48481966  0.96241303  0.10999025     0.01130
C730        C  0.99647430  0.93003730  0.11012174     0.01130
N731        N  0.04486472  0.74446513  0.32967283    -0.26730
N732        N  0.07031865  0.74577428  0.33908111    -0.34580
C733        C  0.06149306  0.73205574  0.35217049     0.01610
C734        C  0.02837271  0.72150106  0.35124527     0.07640
C735        C  0.01815887  0.73152762  0.33685854    -0.05460
H736        H  0.07855121  0.72935511  0.36160422     0.08310
H737        H  0.49352654  0.72951296  0.33184702     0.09510
Cu738      Cu  0.11754019  0.76070772  0.33276083     0.44170
Cu739      Cu  0.05524425  0.75279754  0.30726285     0.41990
Cu740      Cu  0.14625154  0.72306955  0.30002578     0.43880
N741        N  0.16663907  0.74550849  0.33010467    -0.34110
N742        N  0.17576817  0.72360868  0.31971635    -0.28370
C743        C  0.20172226  0.70454555  0.32524474    -0.04470
C744        C  0.20946332  0.71608693  0.33968978     0.07750
C745        C  0.18693917  0.74249627  0.34197916     0.01540
H746        H  0.21168309  0.68215036  0.31985335     0.09200
H747        H  0.18183290  0.75490557  0.35257512     0.08270
N748        N  0.11198654  0.74359767  0.28410050    -0.35560
N749        N  0.08122881  0.75518930  0.28709973    -0.27740
C750        C  0.06783315  0.76903154  0.27465579    -0.02980
C751        C  0.09055839  0.76581689  0.26296538     0.05630
C752        C  0.11842367  0.74964648  0.26944948     0.03720
H753        H  0.04322005  0.78098214  0.27438508     0.08830
H754        H  0.14167403  0.74244508  0.26395508     0.07660
N755        N  0.44415056  0.65479743  0.32886924    -0.26730
N756        N  0.41990667  0.65007037  0.33859258    -0.34580
C757        C  0.42884953  0.66266011  0.35189663     0.01610
C758        C  0.46079864  0.67611859  0.35083790     0.07640
C759        C  0.47035601  0.66894950  0.33603919    -0.05460
H760        H  0.41255733  0.66259362  0.36160600     0.08310
H761        H  0.49416648  0.67347255  0.33073107     0.09510
Cu762      Cu  0.37337752  0.63231570  0.33280939     0.44170
Cu763      Cu  0.43277400  0.64755128  0.30637974     0.41990
Cu764      Cu  0.33789734  0.66286387  0.30000315     0.43880
N765        N  0.32342838  0.64518809  0.33121794    -0.34110
N766        N  0.31088575  0.66367033  0.32018313    -0.28370
C767        C  0.28373100  0.68120417  0.32545548    -0.04470
C768        C  0.27918197  0.67253249  0.34055089     0.07750
C769        C  0.30460838  0.64916479  0.34344272     0.01540
H770        H  0.27064326  0.70085433  0.31925988     0.09200
H771        H  0.31193138  0.63921501  0.35432180     0.08270
N772        N  0.37317969  0.64500211  0.28417539    -0.35560
N773        N  0.40590273  0.64005731  0.28659362    -0.27740
C774        C  0.42033429  0.62880120  0.27389787    -0.02980
C775        C  0.39586891  0.62596134  0.26299993     0.05630
C776        C  0.36624624  0.63642873  0.26982157     0.03720
H777        H  0.44699910  0.62372821  0.27260007     0.08830
H778        H  0.34171096  0.63884237  0.26459302     0.07660
C779        C  0.22706722  0.69960156  0.35268656     0.01130
C780        C  0.25960376  0.68840975  0.35307563     0.01130
N781        N  0.05245645  0.91987495  0.88945386    -0.26730
N782        N  0.06876192  0.94674959  0.88502196    -0.34580
C783        C  0.05540956  0.95807957  0.87206888     0.01610
C784        C  0.02922783  0.93765731  0.86819770     0.07640
C785        C  0.02784956  0.91361283  0.87944806    -0.05460
H786        H  0.06566662  0.97811127  0.86536304     0.08310
H787        H  0.51171222  0.89205380  0.87979320     0.09510
Cu788      Cu  0.11444686  0.96092784  0.89355191     0.44170
Cu789      Cu  0.06877116  0.89086467  0.90755841     0.41990
Cu790      Cu  0.15954983  0.89616532  0.91230202     0.43880
N791        N  0.16493292  0.95226253  0.89031319    -0.34110
N792        N  0.18108480  0.92569018  0.89584865    -0.28370
C793        C  0.20872338  0.91952384  0.88748624    -0.04470
C794        C  0.20982490  0.94365664  0.87626133     0.07750
C795        C  0.18188055  0.96404285  0.87849164     0.01540
H796        H  0.22478714  0.89739085  0.88853783     0.09200
H797        H  0.17200600  0.98278099  0.87074186     0.08270
N798        N  0.12758164  0.87623446  0.92825904    -0.35560
N799        N  0.09475156  0.87324062  0.92635204    -0.27740
C800        C  0.08115214  0.86248707  0.93928236    -0.02980
C801        C  0.10653388  0.85904337  0.94986404     0.05630
C802        C  0.13559301  0.86803778  0.94251987     0.03720
H803        H  0.05444811  0.86009454  0.94120193     0.08830
H804        H  0.16042374  0.87018817  0.94739419     0.07660
N805        N  0.43868001  0.46908691  0.88973777    -0.26730
N806        N  0.42045019  0.44389592  0.88485072    -0.34580
C807        C  0.43278313  0.43293005  0.87166918     0.01610
C808        C  0.46034409  0.45179331  0.86814403     0.07640
C809        C  0.46349488  0.47459485  0.87981818    -0.05460
H810        H  0.42108795  0.41427099  0.86463787     0.08310
H811        H  0.48109270  0.49492915  0.88053886     0.09510
Cu812      Cu  0.37419945  0.43209966  0.89346840     0.44170
Cu813      Cu  0.42460055  0.49747567  0.90831010     0.41990
Cu814      Cu  0.33346733  0.50065654  0.91182447     0.43880
N815        N  0.32398574  0.44342151  0.89069868    -0.34110
N816        N  0.30977999  0.47135682  0.89587551    -0.28370
C817        C  0.28231753  0.47875329  0.88750715    -0.04470
C818        C  0.27920795  0.45398003  0.87668531     0.07750
C819        C  0.30580533  0.43193624  0.87915517     0.01540
H820        H  0.26793186  0.50204895  0.88819870     0.09200
H821        H  0.31430899  0.41227360  0.87158859     0.08270
N822        N  0.36624623  0.51830729  0.92805650    -0.35560
N823        N  0.39938005  0.51733941  0.92676977    -0.27740
C824        C  0.41313846  0.52712850  0.93984736    -0.02980
C825        C  0.38747157  0.53430765  0.94990637     0.05630
C826        C  0.35809179  0.52852072  0.94200744     0.03720
H827        H  0.43986717  0.52678423  0.94217002     0.08830
H828        H  0.33264586  0.53027012  0.94623956     0.07660
C829        C  0.22925080  0.94235218  0.86202884     0.01130
C830        C  0.26035166  0.95612984  0.86228494     0.01130
N831        N  0.46711526  0.00369610  0.07398422    -0.26730
N832        N  0.49415194  0.51969242  0.07850896    -0.34580
C833        C  0.50509755  0.00636721  0.09153289     0.01610
C834        C  0.48424464  0.98051398  0.09535005     0.07640
C835        C  0.46034650  0.97933062  0.08399414    -0.05460
H836        H  0.52518695  0.51641975  0.09830826     0.08310
H837        H  0.43854864  0.96350771  0.08357618     0.09510
Cu838      Cu  0.50918295  0.56490768  0.06983830     0.44170
Cu839      Cu  0.43862056  0.52014791  0.05573506     0.41990
Cu840      Cu  0.44504796  0.61071464  0.05078733     0.43880
N841        N  0.50204797  0.61579061  0.07244980    -0.34110
N842        N  0.47571678  0.63226838  0.06684719    -0.28370
C843        C  0.47032755  0.66038612  0.07498388    -0.04470
C844        C  0.49470553  0.66149667  0.08613502     0.07750
C845        C  0.51446374  0.63303964  0.08407900     0.01540
H846        H  0.44836142  0.67669570  0.07393233     0.09200
H847        H  0.53292925  0.62299886  0.09193144     0.08270
N848        N  0.42425755  0.57883303  0.03499566    -0.35560
N849        N  0.42119671  0.54605736  0.03690838    -0.27740
C850        C  0.41021724  0.53243951  0.02399954    -0.02980
C851        C  0.40665079  0.55775210  0.01340765     0.05630
C852        C  0.41572616  0.58681750  0.02077416     0.03720
H853        H  0.40766542  0.50575095  0.02211281     0.08830
H854        H  0.41764198  0.61167696  0.01595559     0.07660
N855        N  0.01527087  0.89099008  0.07371249    -0.26730
N856        N  0.99087151  0.87183219  0.07863879    -0.34580
C857        C  0.97994760  0.88348744  0.09195963     0.01610
C858        C  0.99798922  0.91160233  0.09554457     0.07640
C859        C  0.02031549  0.91571150  0.08375562    -0.05460
H860        H  0.96179523  0.87110813  0.09898995     0.08310
H861        H  0.03996796  0.93405111  0.08298977     0.09510
Cu862      Cu  0.98026970  0.82559271  0.06964604     0.44170
Cu863      Cu  0.04330973  0.87832215  0.05481825     0.41990
Cu864      Cu  0.05128777  0.78755339  0.05170655     0.43880
N865        N  0.99308438  0.77566272  0.07202082    -0.34110
N866        N  0.02184445  0.76262663  0.06714317    -0.28370
C867        C  0.02972613  0.73523294  0.07543206    -0.04470
C868        C  0.00441778  0.73091846  0.08587485     0.07750
C869        C  0.98154325  0.75672504  0.08326307     0.01540
H870        H  0.05360181  0.72177720  0.07499341     0.09200
H871        H  0.96119067  0.76434674  0.09063922     0.08270
N872        N  0.06767802  0.82068067  0.03541784    -0.35560
N873        N  0.06443090  0.85373033  0.03642725    -0.27740
C874        C  0.07340809  0.86750712  0.02325655    -0.02980
C875        C  0.08259959  0.84191824  0.01342589     0.05630
C876        C  0.07878355  0.81258702  0.02159981     0.03720
H877        H  0.07124108  0.89405920  0.02073866     0.08830
H878        H  0.08250357  0.78708307  0.01766632     0.07660
C879        C  0.49329430  0.68084221  0.10039707     0.01130
C880        C  0.00656474  0.71213557  0.10025492     0.01130
C881        C  0.37463183  0.53254505  0.99214322     0.24160
C882        C  0.40042821  0.55341909  0.99715438    -0.23950
C883        C  0.42128649  0.56879554  0.98653511     0.19070
C884        C  0.41680292  0.56286798  0.97116392     0.24100
C885        C  0.39107509  0.54185740  0.96612009    -0.23890
C886        C  0.36978938  0.52700978  0.97675939     0.19000
F887        F  0.34520402  0.50593149  0.97235413    -0.13850
F888        F  0.35403949  0.51753121  0.00216460    -0.16210
F889        F  0.43760318  0.57779434  0.96120618    -0.16220
F890        F  0.44699389  0.58840098  0.99104864    -0.13850
C891        C  0.07956449  0.82102002  0.98675945     0.24160
C892        C  0.09041898  0.84523512  0.99719196    -0.23950
C893        C  0.10767008  0.87341544  0.99187068     0.19070
C894        C  0.11366701  0.87742754  0.97648677     0.24100
C895        C  0.10220344  0.85358402  0.96612810    -0.23890
C896        C  0.08519673  0.82535945  0.97135866     0.19000
F897        F  0.07407221  0.80193167  0.96152327    -0.13850
F898        F  0.06222114  0.79382493  0.99132402    -0.16210
F899        F  0.12949544  0.90535014  0.97164911    -0.16220
F900        F  0.11891907  0.89708582  0.00154916    -0.13850
C901        C  0.04660663  0.78924650  0.22619537     0.24160
C902        C  0.07376305  0.79442170  0.21657698    -0.23950
C903        C  0.10668656  0.79117310  0.22219622     0.19070
C904        C  0.11235965  0.78274065  0.23733977     0.24100
C905        C  0.08507304  0.77640129  0.24700602    -0.23890
C906        C  0.05207087  0.77987551  0.24115147     0.19000
F907        F  0.02478372  0.77254801  0.24955922    -0.13850
F908        F  0.01460494  0.79148470  0.22085315    -0.16210
F909        F  0.14451852  0.78108918  0.24247384    -0.16220
F910        F  0.13333098  0.79616703  0.21299845    -0.13850
C911        C  0.43184735  0.63355479  0.22413328     0.24160
C912        C  0.41894743  0.60522860  0.21681993    -0.23950
C913        C  0.39728989  0.58395539  0.22472069     0.19070
C914        C  0.38859581  0.59117160  0.23969783     0.24100
C915        C  0.40205789  0.61927450  0.24695735    -0.23890
C916        C  0.42367295  0.64032221  0.23906379     0.19000
F917        F  0.43685914  0.66765942  0.24585883    -0.13850
F918        F  0.45328696  0.65427642  0.21696011    -0.16210
F919        F  0.36786949  0.57032889  0.24721950    -0.16220
F920        F  0.38408981  0.55670171  0.21787241    -0.13850
C921        C  0.13059838  0.78028444  0.47703013     0.24160
C922        C  0.15004735  0.79460294  0.46556803    -0.23950
C923        C  0.17774473  0.81420001  0.46960453     0.19070
C924        C  0.18670298  0.81820382  0.48471863     0.24100
C925        C  0.16827787  0.80250891  0.49612538    -0.23890
C926        C  0.13968450  0.78414034  0.49214695     0.19000
F927        F  0.12049891  0.76973969  0.50289226    -0.13850
F928        F  0.10380913  0.76102497  0.47365099    -0.16210
F929        F  0.21447650  0.83603725  0.48810080    -0.16220
F930        F  0.19646391  0.82928214  0.45888650    -0.13850
C931        C  0.30667712  0.57450108  0.48484116     0.24160
C932        C  0.32412845  0.59129300  0.49628975    -0.23950
C933        C  0.35221205  0.61048353  0.49238968     0.19070
C934        C  0.36153607  0.61421006  0.47731578     0.24100
C935        C  0.34295961  0.59881187  0.46581057    -0.23890
C936        C  0.31598814  0.57823619  0.46978171     0.19000
F937        F  0.29822671  0.56198882  0.45903850    -0.13850
F938        F  0.27943373  0.55582609  0.48808357    -0.16210
F939        F  0.38762018  0.63440547  0.47400438    -0.16220
F940        F  0.37066296  0.62587678  0.50315480    -0.13850
C941        C  0.12255805  0.86984843  0.71981003     0.24160
C942        C  0.14876649  0.84784731  0.71547695    -0.23950
C943        C  0.17058332  0.83457541  0.72652047     0.19070
C944        C  0.16711297  0.84428093  0.74157163     0.24100
C945        C  0.14175677  0.86762683  0.74589787    -0.23890
C946        C  0.11896147  0.87957993  0.73484843     0.19000
F947        F  0.09404024  0.90194270  0.73835894    -0.13850
F948        F  0.10057221  0.88228427  0.70939471    -0.16210
F949        F  0.18875614  0.83073489  0.75184323    -0.16220
F950        F  0.19645829  0.81358373  0.72265234    -0.13850
C951        C  0.36577081  0.55333864  0.72380854     0.24160
C952        C  0.33791927  0.54231232  0.71555495    -0.23950
C953        C  0.31306941  0.52373332  0.72282103     0.19070
C954        C  0.31623226  0.51572483  0.73803990     0.24100
C955        C  0.34461308  0.52567169  0.74624953    -0.23890
C956        C  0.36933741  0.54470165  0.73904490     0.19000
F957        F  0.39659329  0.55534741  0.74680104    -0.13850
F958        F  0.38992109  0.57155022  0.71700600    -0.16210
F959        F  0.29202428  0.49716832  0.74461166    -0.16220
F960        F  0.28550493  0.51346154  0.71516620    -0.13850
N961        N  0.79618114  0.99465194  0.82799659    -0.26730
N962        N  0.82099874  0.99695551  0.83770792    -0.34580
C963        C  0.81170092  0.98355981  0.85078235     0.01610
C964        C  0.77893827  0.97221554  0.84956475     0.07640
C965        C  0.76932242  0.98157196  0.83500980    -0.05460
H966        H  0.82829947  0.98150641  0.86040681     0.08310
H967        H  0.74500996  0.97910798  0.82975829     0.09510
Cu968      Cu  0.86853354  0.01228707  0.83224658     0.44170
Cu969      Cu  0.80738079  0.00118022  0.80550401     0.41990
Cu970      Cu  0.90044422  0.97589711  0.80034955     0.43880
N971        N  0.91763822  0.99631358  0.83096419    -0.34110
N972        N  0.92820805  0.97553470  0.82039846    -0.28370
C973        C  0.95414621  0.95664685  0.82600729    -0.04470
C974        C  0.96028197  0.96705052  0.84076368     0.07750
C975        C  0.93678534  0.99255330  0.84317923     0.01540
H976        H  0.96522524  0.93511797  0.82034996     0.09200
H977        H  0.93069059  0.00413975  0.85385976     0.08270
N978        N  0.86740771  0.99553554  0.78388380    -0.35560
N979        N  0.83525334  0.00408170  0.78582613    -0.27740
C980        C  0.82274296  0.01639867  0.77286566    -0.02980
C981        C  0.84797065  0.01604986  0.76224658     0.05630
C982        C  0.87597989  0.00281806  0.76960097     0.03720
H983        H  0.79706190  0.02526505  0.77134637     0.08830
H984        H  0.90067268  0.99828493  0.76485661     0.07660
N985        N  0.69455759  0.40569437  0.82691855    -0.26730
N986        N  0.67042918  0.40067132  0.83668541    -0.34580
C987        C  0.67954574  0.41289689  0.85003349     0.01610
C988        C  0.71145021  0.42639278  0.84897256     0.07640
C989        C  0.72088220  0.41948896  0.83413792    -0.05460
H990        H  0.66333416  0.41267897  0.85977064     0.08310
H991        H  0.74469143  0.42392927  0.82882309     0.09510
Cu992      Cu  0.62352621  0.38343069  0.83122139     0.44170
Cu993      Cu  0.68311762  0.40061045  0.80426884     0.41990
Cu994      Cu  0.58873173  0.42003145  0.79999004     0.43880
N995        N  0.57383448  0.39767303  0.83049659    -0.34110
N996        N  0.56176970  0.41823201  0.82011482    -0.28370
C997        C  0.53505941  0.43548890  0.82592990    -0.04470
C998        C  0.53010467  0.42433222  0.84065723     0.07750
C999        C  0.55505102  0.40005805  0.84282677     0.01540
H1000       H  0.52262230  0.45653207  0.82042031     0.09200
H1001       H  0.56208558  0.38831235  0.85338599     0.08270
N1002       N  0.62168054  0.40213183  0.78326033    -0.35560
N1003       N  0.65436976  0.39564111  0.78478930    -0.27740
C1004       C  0.66625779  0.38276278  0.77184643    -0.02980
C1005       C  0.64000833  0.38040049  0.76163524     0.05630
C1006       C  0.61216100  0.39299698  0.76932428     0.03720
H1007       H  0.69234140  0.37572570  0.77009867     0.08830
H1008       H  0.58647694  0.39450428  0.76532540     0.07660
C1009       C  0.51091752  0.43880409  0.85360784     0.01130
C1010       C  0.97866539  0.45078140  0.85358372     0.01130
N1011       N  0.71695728  0.39105694  0.63907243    -0.26730
N1012       N  0.74434458  0.37430119  0.63485162    -0.34580
C1013       C  0.75592186  0.38759057  0.62205099     0.01610
C1014       C  0.73512017  0.41423403  0.61807907     0.07640
C1015       C  0.71060355  0.41591977  0.62910691    -0.05460
H1016       H  0.77637999  0.37699025  0.61548443     0.08310
H1017       H  0.68864518  0.43238881  0.62928428     0.09510
Cu1018     Cu  0.75891970  0.32834676  0.64354719     0.44170
Cu1019     Cu  0.68763209  0.37494164  0.65683206     0.41990
Cu1020     Cu  0.69518146  0.28461825  0.66291912     0.43880
N1021       N  0.75102355  0.27792855  0.64068908    -0.34110
N1022       N  0.72486032  0.26242471  0.64636341    -0.28370
C1023       C  0.71887371  0.23489430  0.63802441    -0.04470
C1024       C  0.74269567  0.23315082  0.62669132     0.07750
C1025       C  0.76275557  0.26058518  0.62884445     0.01540
H1026       H  0.69697572  0.21939109  0.63915838     0.09200
H1027       H  0.78106687  0.26999593  0.62099267     0.08270
N1028       N  0.67380704  0.31793344  0.67831435    -0.35560
N1029       N  0.66996273  0.35055700  0.67578614    -0.27740
C1030       C  0.65828742  0.36549149  0.68832469    -0.02980
C1031       C  0.65505804  0.34129783  0.69936621     0.05630
C1032       C  0.66517311  0.31140858  0.69263929     0.03720
H1033       H  0.65515720  0.39238325  0.68969752     0.08830
H1034       H  0.66769350  0.28702839  0.69796279     0.07660
N1035       N  0.76918452  0.50402007  0.63910392    -0.26730
N1036       N  0.74337285  0.02295216  0.63465869    -0.34580
C1037       C  0.73113187  0.51067622  0.62174298     0.01610
C1038       C  0.74981765  0.48238080  0.61799192     0.07640
C1039       C  0.77382221  0.47877000  0.62922570    -0.05780
H1040       H  0.71181468  0.02291814  0.61497380     0.08310
H1041       H  0.79446955  0.46067940  0.62958996     0.09510
Cu1042     Cu  0.73288385  0.06968271  0.64358307     0.44170
Cu1043     Cu  0.79928290  0.01799161  0.65691046     0.41990
Cu1044     Cu  0.80279524  0.10839033  0.66212438     0.43880
N1045       N  0.74459893  0.11937911  0.64103260    -0.34110
N1046       N  0.77273235  0.13259895  0.64606488    -0.28370
C1047       C  0.77970521  0.15970718  0.63759844    -0.04470
C1048       C  0.75446296  0.16361546  0.62691272     0.07750
C1049       C  0.73259336  0.13789258  0.62956151     0.01540
H1050       H  0.80292291  0.17337688  0.63817834     0.09200
H1051       H  0.71255710  0.13010087  0.62215320     0.08270
N1052       N  0.82110348  0.07354743  0.67778033    -0.35560
N1053       N  0.81950784  0.04070128  0.67568087    -0.27740
C1054       C  0.82775991  0.02482587  0.68851775    -0.02980
C1055       C  0.83502989  0.04862647  0.69926657     0.05630
C1056       C  0.83071136  0.07932783  0.69209495     0.03720
H1057       H  0.82599918  0.99799626  0.69023586     0.08830
H1058       H  0.83138798  0.10391455  0.69726173     0.07660
C1059       C  0.74114888  0.21382951  0.61242543     0.01130
C1060       C  0.75559200  0.18248070  0.61251300     0.01130
N1061       N  0.80006471  0.17113359  0.38928465    -0.26730
N1062       N  0.81683275  0.19756311  0.38471142    -0.34580
C1063       C  0.80384126  0.20852589  0.37161029     0.01610
C1064       C  0.77737022  0.18829514  0.36783123     0.07640
C1065       C  0.77553861  0.16476453  0.37927290    -0.05460
H1066       H  0.81456990  0.22801957  0.36474047     0.08310
H1067       H  0.75928028  0.14330511  0.37970427     0.09510
Cu1068     Cu  0.86247662  0.21094427  0.39364387     0.44170
Cu1069     Cu  0.81608306  0.14251212  0.40746378     0.41990
Cu1070     Cu  0.90659969  0.14526231  0.41342372     0.43880
N1071       N  0.91329835  0.20207628  0.39158254    -0.34110
N1072       N  0.92898107  0.17531953  0.39723921    -0.28370
C1073       C  0.95714924  0.16926345  0.38919429    -0.04470
C1074       C  0.95913637  0.19366842  0.37810145     0.07750
C1075       C  0.93114967  0.21410244  0.38008899     0.01540
H1076       H  0.97295583  0.14696059  0.39029497     0.09200
H1077       H  0.92174990  0.23288212  0.37224519     0.08270
N1078       N  0.87314469  0.12476344  0.42876001    -0.35560
N1079       N  0.84036360  0.12345647  0.42634064    -0.27740
C1080       C  0.82526740  0.11228794  0.43881201    -0.02980
C1081       C  0.84950552  0.10639035  0.44975077     0.05630
C1082       C  0.87966037  0.11455376  0.44294494     0.03720
H1083       H  0.79829069  0.11108964  0.44016461     0.08830
H1084       H  0.90435182  0.11449518  0.44808222     0.07660
N1085       N  0.68760156  0.21990696  0.38877083    -0.26730
N1086       N  0.66953621  0.19417274  0.38437549    -0.34580
C1087       C  0.68138221  0.18262598  0.37118773     0.01610
C1088       C  0.70849505  0.20169824  0.36718315     0.07640
C1089       C  0.71184107  0.22519395  0.37856282    -0.05460
H1090       H  0.66985147  0.16315327  0.36456173     0.08310
H1091       H  0.72936450  0.24563560  0.37895568     0.09510
Cu1092     Cu  0.62440966  0.18202213  0.39404323     0.44170
Cu1093     Cu  0.67437825  0.24886849  0.40725198     0.41990
Cu1094     Cu  0.58426203  0.25081458  0.41322129     0.43880
N1095       N  0.57396730  0.19316629  0.39220080    -0.34110
N1096       N  0.56003244  0.22119926  0.39743917    -0.28370
C1097       C  0.53233870  0.22860417  0.38920649    -0.04470
C1098       C  0.52876798  0.20371616  0.37845673     0.07750
C1099       C  0.55531259  0.18159043  0.38083382     0.01540
H1100       H  0.51811133  0.25199287  0.38990850     0.09200
H1101       H  0.56357404  0.16192220  0.37321741     0.08270
N1102       N  0.61876363  0.26976943  0.42851307    -0.35560
N1103       N  0.65159020  0.26926708  0.42617459    -0.27740
C1104       C  0.66727872  0.27975617  0.43866831    -0.02980
C1105       C  0.64331834  0.28705721  0.44951206     0.05630
C1106       C  0.61276842  0.28046701  0.44263556     0.03720
H1107       H  0.69430688  0.27961455  0.44010271     0.08830
H1108       H  0.58807742  0.28192267  0.44768726     0.07660
C1109       C  0.50979168  0.20583996  0.36408648     0.01130
C1110       C  0.97865244  0.19210971  0.36388586     0.01130
N1111       N  0.79134018  0.14528282  0.57759424    -0.26730
N1112       N  0.79428506  0.12035164  0.58723809    -0.34580
C1113       C  0.78203485  0.13016070  0.60052165     0.01610
C1114       C  0.77072017  0.16336497  0.59953204     0.07640
C1115       C  0.77890075  0.17264133  0.58484757    -0.05460
H1116       H  0.78066753  0.11360466  0.61013680     0.08310
H1117       H  0.77596936  0.19705054  0.57967128     0.09510
Cu1118     Cu  0.80863672  0.07211464  0.58154389     0.44170
Cu1119     Cu  0.79674558  0.13390684  0.55497785     0.41990
Cu1120     Cu  0.76943383  0.04223599  0.55023152     0.43880
N1121       N  0.79196786  0.02385082  0.58050107    -0.34110
N1122       N  0.77052500  0.01410945  0.57014692    -0.28370
C1123       C  0.75224866  0.48864330  0.57586583    -0.04470
C1124       C  0.76360835  0.48206949  0.59049186     0.07750
C1125       C  0.78909798  0.00472865  0.59270148     0.01540
H1126       H  0.73053312  0.47813551  0.57039133     0.09200
H1127       H  0.80139425  0.01030041  0.60325784     0.08270
N1128       N  0.78934169  0.07377645  0.53361818    -0.35560
N1129       N  0.79931486  0.10518085  0.53542184    -0.27740
C1130       C  0.81312961  0.11585028  0.52254104    -0.02980
C1131       C  0.81212528  0.09019550  0.51207630     0.05630
C1132       C  0.79677225  0.06397033  0.51949289     0.03720
H1133       H  0.82301249  0.14072511  0.52093666     0.08830
H1134       H  0.79218739  0.03912130  0.51511431     0.07660
N1135       N  0.70214706  0.24915775  0.57761690    -0.26730
N1136       N  0.69817876  0.27386373  0.58728076    -0.34580
C1137       C  0.71131970  0.26462676  0.60052172     0.01610
C1138       C  0.72441218  0.23204801  0.59948587     0.07640
C1139       C  0.71627855  0.22244637  0.58480902    -0.05460
H1140       H  0.71205758  0.28120330  0.61013848     0.08310
H1141       H  0.72022766  0.19827868  0.57957987     0.09510
Cu1142     Cu  0.68140432  0.32140010  0.58157420     0.44170
Cu1143     Cu  0.69559372  0.26041976  0.55501154     0.41990
Cu1144     Cu  0.72005058  0.35286507  0.55041948     0.43880
N1145       N  0.69576280  0.37043292  0.58045404    -0.34110
N1146       N  0.71698875  0.38103939  0.57024031    -0.28370
C1147       C  0.73387166  0.40744336  0.57599984    -0.04470
C1148       C  0.72183392  0.41368756  0.59050377     0.07750
C1149       C  0.69738590  0.38987522  0.59259820     0.01540
H1150       H  0.75522971  0.41881876  0.57066272     0.09200
H1151       H  0.68509924  0.38387412  0.60307495     0.08270
N1152       N  0.70161896  0.32077823  0.53366928    -0.35560
N1153       N  0.69224172  0.28916872  0.53543902    -0.27740
C1154       C  0.67890606  0.27821599  0.52246900    -0.02980
C1155       C  0.67976771  0.30386156  0.51198883     0.05630
C1156       C  0.69443179  0.33039224  0.51946822     0.03720
H1157       H  0.66949776  0.25316566  0.52079228     0.08830
H1158       H  0.69869861  0.35528730  0.51506164     0.07660
C1159       C  0.74812095  0.46418815  0.60342285     0.01130
C1160       C  0.73615246  0.43242658  0.60348185     0.01130
N1161       N  0.95480413  0.14683640  0.13508108    -0.26730
N1162       N  0.94974585  0.12274804  0.12529844    -0.34580
C1163       C  0.96270179  0.13153746  0.11207117     0.01610
C1164       C  0.97674960  0.16319718  0.11328562     0.07640
C1165       C  0.96957480  0.17277800  0.12806120    -0.05460
H1166       H  0.96252483  0.11531758  0.10232474     0.08310
H1167       H  0.97452521  0.19637747  0.13347473     0.09510
Cu1168     Cu  0.93137571  0.07648045  0.13101193     0.44170
Cu1169     Cu  0.94775889  0.13543825  0.15746638     0.41990
Cu1170     Cu  0.96349059  0.04075436  0.16358185     0.43880
N1171       N  0.94360366  0.02640178  0.13251729    -0.34110
N1172       N  0.96283712  0.01380205  0.14329593    -0.28370
C1173       C  0.97983541  0.48656630  0.13775675    -0.04470
C1174       C  0.96993614  0.48195747  0.12278788     0.07750
C1175       C  0.94649081  0.00749178  0.12024617     0.01540
H1176       H  0.99993393  0.47344941  0.14366036     0.09200
H1177       H  0.93580234  0.01484961  0.10950605     0.08270
N1178       N  0.94648920  0.07607540  0.17966710    -0.35560
N1179       N  0.94117491  0.10868169  0.17721439    -0.27740
C1180       C  0.92986976  0.12321131  0.18986114    -0.02980
C1181       C  0.92769971  0.09904059  0.20090086     0.05630
C1182       C  0.93820671  0.06934114  0.19406856     0.03720
H1183       H  0.92372021  0.14970711  0.19091744     0.08830
H1184       H  0.94043540  0.04480861  0.19926941     0.07660
N1185       N  0.54489856  0.24826977  0.13461463    -0.26730
N1186       N  0.54576667  0.27349110  0.12509477    -0.34580
C1187       C  0.53194840  0.26424438  0.11207967     0.01610
C1188       C  0.52183274  0.23106403  0.11311315     0.07640
C1189       C  0.53213187  0.22126976  0.12752986    -0.05460
H1190       H  0.52897684  0.28106884  0.10259666     0.08310
H1191       H  0.53046719  0.19670935  0.13260543     0.09510
Cu1192     Cu  0.56022349  0.32116758  0.13083056     0.44170
Cu1193     Cu  0.55403725  0.25916976  0.15697937     0.41990
Cu1194     Cu  0.52236656  0.35031611  0.16285663     0.43880
N1195       N  0.54318728  0.36982779  0.13259467    -0.34110
N1196       N  0.52168259  0.37922738  0.14308093    -0.28370
C1197       C  0.50228531  0.40491756  0.13756814    -0.04470
C1198       C  0.51311976  0.41211604  0.12298082     0.07750
C1199       C  0.53941386  0.38951062  0.12057093     0.01540
H1200       H  0.48020171  0.41512031  0.14312095     0.09200
H1201       H  0.55150117  0.38421179  0.10992237     0.08270
N1202       N  0.54457118  0.31797625  0.17905144    -0.35560
N1203       N  0.55707499  0.28723413  0.17664482    -0.27740
C1204       C  0.57113390  0.27549128  0.18941773    -0.02980
C1205       C  0.56738607  0.29959992  0.20041776     0.05630
C1206       C  0.55012344  0.32602912  0.19357045     0.03720
H1207       H  0.58185020  0.25047066  0.19078284     0.08830
H1208       H  0.54176913  0.34923026  0.19882134     0.07660
C1209       C  0.98482070  0.46241249  0.10999010     0.01130
C1210       C  0.49647555  0.43003684  0.11012154     0.01130
N1211       N  0.54486409  0.24446397  0.32967295    -0.26730
N1212       N  0.57031798  0.24577357  0.33908123    -0.34580
C1213       C  0.56149253  0.23205521  0.35217067     0.01610
C1214       C  0.52837230  0.22150019  0.35124550     0.07640
C1215       C  0.51815836  0.23152636  0.33685872    -0.05460
H1216       H  0.57855072  0.22935495  0.36160440     0.08310
H1217       H  0.99352604  0.22951130  0.33184723     0.09510
Cu1218     Cu  0.61753936  0.26070736  0.33276091     0.44170
Cu1219     Cu  0.55524359  0.25279616  0.30726292     0.41990
Cu1220     Cu  0.64625133  0.22306942  0.30002593     0.43880
N1221       N  0.66663831  0.24550836  0.33010489    -0.34110
N1222       N  0.67576778  0.22360875  0.31971655    -0.28370
C1223       C  0.70172208  0.20454591  0.32524496    -0.04470
C1224       C  0.70946279  0.21608723  0.33969005     0.07750
C1225       C  0.68693828  0.24249625  0.34197944     0.01540
H1226       H  0.71168330  0.18215093  0.31985353     0.09200
H1227       H  0.68183177  0.25490544  0.35257540     0.08270
N1228       N  0.61198616  0.24359711  0.28410062    -0.35560
N1229       N  0.58122822  0.25518825  0.28709978    -0.27740
C1230       C  0.56783249  0.26903030  0.27465581    -0.02980
C1231       C  0.59055792  0.26581605  0.26296545     0.05630
C1232       C  0.61842336  0.24964606  0.26944961     0.03720
H1233       H  0.54321921  0.28098052  0.27438504     0.08830
H1234       H  0.64167390  0.24244504  0.26395526     0.07660
N1235       N  0.94415018  0.15479629  0.32886963    -0.26730
N1236       N  0.91990615  0.15006956  0.33859295    -0.34580
C1237       C  0.92884908  0.16265924  0.35189701     0.01610
C1238       C  0.96079837  0.17611733  0.35083830     0.07640
C1239       C  0.97035576  0.16894806  0.33603962    -0.05460
H1240       H  0.91255681  0.16259300  0.36160635     0.08310
H1241       H  0.99416633  0.17347081  0.33073153     0.09510
Cu1242     Cu  0.87337681  0.13231539  0.33280969     0.44170
Cu1243     Cu  0.93277373  0.14755038  0.30638009     0.41990
Cu1244     Cu  0.83789733  0.16286406  0.30000338     0.43880
N1245       N  0.82342772  0.14518801  0.33121809    -0.34110
N1246       N  0.81088546  0.16367055  0.32018329    -0.28370
C1247       C  0.78373086  0.18120467  0.32545563    -0.04470
C1248       C  0.77918150  0.17253282  0.34055101     0.07750
C1249       C  0.80460758  0.14916473  0.34344282     0.01540
H1250       H  0.77064348  0.20085514  0.31926008     0.09200
H1251       H  0.81193037  0.13921479  0.35432190     0.08270
N1252       N  0.87317967  0.14500236  0.28417558    -0.35560
N1253       N  0.90590264  0.14005718  0.28659385    -0.27740
C1254       C  0.92033423  0.12880131  0.27389806    -0.02980
C1255       C  0.89586892  0.12596195  0.26300006     0.05630
C1256       C  0.86624627  0.13642942  0.26982169     0.03720
H1257       H  0.94699900  0.12372809  0.27260029     0.08830
H1258       H  0.84171105  0.13884340  0.26459312     0.07660
C1259       C  0.72706706  0.19960219  0.35268681     0.01130
C1260       C  0.75960362  0.18841043  0.35307577     0.01130
N1261       N  0.55246254  0.41987218  0.88945341    -0.26730
N1262       N  0.56876655  0.44674781  0.88502160    -0.34580
C1263       C  0.55541336  0.45807753  0.87206865     0.01610
C1264       C  0.52923261  0.43765404  0.86819746     0.07640
C1265       C  0.52785576  0.41360912  0.87944767    -0.05460
H1266       H  0.56566929  0.47810993  0.86536288     0.08310
H1267       H  0.01171948  0.39204962  0.87979281     0.09510
Cu1268     Cu  0.61445098  0.46092805  0.89355138     0.44170
Cu1269     Cu  0.56877908  0.39086249  0.90755783     0.41990
Cu1270     Cu  0.65955724  0.39616893  0.91230227     0.43880
N1271       N  0.66493729  0.45226479  0.89031251    -0.34110
N1272       N  0.68109058  0.42569362  0.89584831    -0.28370
C1273       C  0.70872929  0.41952807  0.88748587    -0.04470
C1274       C  0.70982941  0.44366013  0.87626058     0.07750
C1275       C  0.68188409  0.46404510  0.87849071     0.01540
H1276       H  0.72479423  0.39739599  0.88853776     0.09200
H1277       H  0.67200852  0.48278230  0.87074072     0.08270
N1278       N  0.62758939  0.37623693  0.92825924    -0.35560
N1279       N  0.59475968  0.37324080  0.92635183    -0.27740
C1280       C  0.58116013  0.36248671  0.93928202    -0.02980
C1281       C  0.60654129  0.35904507  0.94986409     0.05630
C1282       C  0.63560032  0.36804121  0.94252025     0.03720
H1283       H  0.55445616  0.36009226  0.94120120     0.08830
H1284       H  0.66043062  0.37019311  0.94739485     0.07660
N1285       N  0.93867471  0.96908949  0.88973809    -0.26730
N1286       N  0.92044599  0.94389760  0.88485115    -0.34580
C1287       C  0.93277932  0.93293204  0.87166963     0.01610
C1288       C  0.96033939  0.95179647  0.86814437     0.07640
C1289       C  0.96348928  0.97459835  0.87981845    -0.05460
H1290       H  0.92108493  0.91427232  0.86463840     0.08310
H1291       H  0.98108625  0.99493341  0.88053904     0.09510
Cu1292     Cu  0.87419583  0.93209943  0.89346889     0.44170
Cu1293     Cu  0.92459407  0.99747788  0.90831037     0.41990
Cu1294     Cu  0.83346085  0.00065398  0.91182548     0.43880
N1295       N  0.82398165  0.94341918  0.89069929    -0.34110
N1296       N  0.80977467  0.97135365  0.89587637    -0.28370
C1297       C  0.78231187  0.97874924  0.88750809    -0.04470
C1298       C  0.77920339  0.95397632  0.87668601     0.07750
C1299       C  0.80580174  0.93193360  0.87915567     0.01540
H1300       H  0.76792519  0.00204426  0.88819983     0.09200
H1301       H  0.81430627  0.91227167  0.87158892     0.08270
N1302       N  0.86623945  0.01830655  0.92805725    -0.35560
N1303       N  0.89937323  0.01734048  0.92677021    -0.27740
C1304       C  0.91313169  0.02713049  0.93984765    -0.02980
C1305       C  0.88746492  0.03430836  0.94990689     0.05630
C1306       C  0.85808511  0.02851970  0.94200824     0.03720
H1307       H  0.93986049  0.02678768  0.94217005     0.08830
H1308       H  0.83263932  0.03026777  0.94624060     0.07660
C1309       C  0.72925547  0.44235586  0.86202810     0.01130
C1310       C  0.76035629  0.45613364  0.86228424     0.01130
N1311       N  0.96711619  0.50369587  0.07398418    -0.26730
N1312       N  0.99415093  0.01969269  0.07850900    -0.34580
C1313       C  0.00509857  0.50636679  0.09153282     0.01610
C1314       C  0.98424567  0.48051353  0.09534993     0.07640
C1315       C  0.96034748  0.47933029  0.08399405    -0.05460
H1316       H  0.02518588  0.01642022  0.09830832     0.08310
H1317       H  0.93854961  0.46350739  0.08357607     0.09510
Cu1318     Cu  0.00918195  0.06490788  0.06983825     0.44170
Cu1319     Cu  0.93861959  0.02014803  0.05573507     0.41990
Cu1320     Cu  0.94504658  0.11071485  0.05078746     0.43880
N1321       N  0.00204719  0.11579088  0.07244965    -0.34110
N1322       N  0.97571588  0.13226865  0.06684714    -0.28370
C1323       C  0.97032695  0.16038648  0.07498382    -0.04470
C1324       C  0.99470525  0.16149711  0.08613482     0.07750
C1325       C  0.01446333  0.13304000  0.08407874     0.01540
H1326       H  0.94836081  0.17669609  0.07393235     0.09200
H1327       H  0.03292902  0.12299925  0.09193110     0.08270
N1328       N  0.92425554  0.07883336  0.03499589    -0.35560
N1329       N  0.92119499  0.04605764  0.03690854    -0.27740
C1330       C  0.91021483  0.03243995  0.02399979    -0.02980
C1331       C  0.90664757  0.05775271  0.01340801     0.05630
C1332       C  0.91572322  0.08681803  0.02077451     0.03720
H1333       H  0.90766295  0.00575141  0.02211302     0.08830
H1334       H  0.91763848  0.11167763  0.01595603     0.07660
N1335       N  0.51527181  0.39098987  0.07371217    -0.26730
N1336       N  0.49087224  0.37183219  0.07863842    -0.34580
C1337       C  0.47994851  0.38348736  0.09195931     0.01610
C1338       C  0.49799047  0.41160196  0.09554434     0.07640
C1339       C  0.52031674  0.41571108  0.08375537    -0.05460
H1340       H  0.46179597  0.37110818  0.09898959     0.08310
H1341       H  0.53996936  0.43405053  0.08298956     0.09510
Cu1342     Cu  0.48026977  0.32559296  0.06964561     0.44170
Cu1343     Cu  0.54331045  0.37832190  0.05481781     0.41990
Cu1344     Cu  0.55128680  0.28755306  0.05170569     0.43880
N1345       N  0.49308429  0.27566298  0.07202054    -0.34110
N1346       N  0.52184405  0.26262661  0.06714267    -0.28370
C1347       C  0.52972589  0.23523300  0.07543160    -0.04470
C1348       C  0.50441795  0.23091887  0.08587464     0.07750
C1349       C  0.48154353  0.25672560  0.08326297     0.01540
H1350       H  0.55360142  0.22177701  0.07499276     0.09200
H1351       H  0.46119126  0.26434752  0.09063925     0.08270
N1352       N  0.56767782  0.32068044  0.03541712    -0.35560
N1353       N  0.56443155  0.35373015  0.03642672    -0.27740
C1354       C  0.57340997  0.36750713  0.02325623    -0.02980
C1355       C  0.58260136  0.34191833  0.01342550     0.05630
C1356       C  0.57878392  0.31258696  0.02159916     0.03720
H1357       H  0.57124412  0.39405937  0.02073852     0.08830
H1358       H  0.58250365  0.28708307  0.01766554     0.07660
C1359       C  0.99329439  0.18084267  0.10039687     0.01130
C1360       C  0.50656512  0.21213586  0.10025468     0.01130
C1361       C  0.87462791  0.03254496  0.99214391     0.24160
C1362       C  0.90042379  0.05341998  0.99715479    -0.23950
C1363       C  0.92128051  0.06879763  0.98653525     0.19070
C1364       C  0.91679605  0.06287016  0.97116410     0.24100
C1365       C  0.89106891  0.04185841  0.96612058    -0.23890
C1366       C  0.86978459  0.02700972  0.97676014     0.19000
F1367       F  0.84519988  0.00593040  0.97235516    -0.13850
F1368       F  0.85403694  0.01753003  0.00216554    -0.16210
F1369       F  0.93759486  0.07779770  0.96120611    -0.16220
F1370       F  0.94698737  0.08840413  0.99104845    -0.13850
C1371       C  0.57956745  0.32102145  0.98675883     0.24160
C1372       C  0.59042235  0.34523551  0.99719173    -0.23950
C1373       C  0.60767551  0.37341504  0.99187098     0.19070
C1374       C  0.61367402  0.37742743  0.97648720     0.24100
C1375       C  0.60220992  0.35358503  0.96612810    -0.23890
C1376       C  0.58520122  0.32536119  0.97135818     0.19000
F1377       F  0.57407615  0.30193441  0.96152243    -0.13850
F1378       F  0.56222219  0.29382718  0.99132290    -0.16210
F1379       F  0.62950434  0.40534939  0.97165008    -0.16220
F1380       F  0.61892490  0.39708440  0.00154988    -0.13850
C1381       C  0.54660637  0.28924494  0.22619529     0.24160
C1382       C  0.57376285  0.29442078  0.21657700    -0.23950
C1383       C  0.60668631  0.29117285  0.22219638     0.19070
C1384       C  0.61235929  0.28274041  0.23733993     0.24100
C1385       C  0.58507264  0.27640043  0.24700608    -0.23890
C1386       C  0.55207052  0.27987401  0.24115140     0.19000
F1387       F  0.52478339  0.27254596  0.24955907    -0.13850
F1388       F  0.51460475  0.29148254  0.22085295    -0.16210
F1389       F  0.64451809  0.28108957  0.24247412    -0.16220
F1390       F  0.63333078  0.29616741  0.21299871    -0.13850
C1391       C  0.93184735  0.13355607  0.22413342     0.24160
C1392       C  0.91894767  0.10522983  0.21682001    -0.23950
C1393       C  0.89729026  0.08395640  0.22472073     0.19070
C1394       C  0.88859610  0.09117242  0.23969787     0.24100
C1395       C  0.90205796  0.11927535  0.24695745    -0.23890
C1396       C  0.92367287  0.14032330  0.23906394     0.19000
F1397       F  0.93685888  0.16766051  0.24585905    -0.13850
F1398       F  0.95328683  0.15427791  0.21696029    -0.16210
F1399       F  0.86786993  0.07032948  0.24721950    -0.16220
F1400       F  0.88409040  0.05670267  0.21787240    -0.13850
C1401       C  0.63059705  0.28028653  0.47703057     0.24160
C1402       C  0.65004623  0.29460446  0.46556839    -0.23950
C1403       C  0.67774331  0.31420204  0.46960482     0.19070
C1404       C  0.68670109  0.31820686  0.48471892     0.24100
C1405       C  0.66827584  0.30251247  0.49612578    -0.23890
C1406       C  0.63968270  0.28414346  0.49214739     0.19000
F1407       F  0.62049691  0.26974327  0.50289276    -0.13850
F1408       F  0.60380808  0.26102661  0.47365151    -0.16210
F1409       F  0.71447439  0.33604071  0.48810101    -0.16220
F1410       F  0.69646265  0.32928368  0.45888671    -0.13850
C1411       C  0.80667225  0.07449987  0.48484049     0.24160
C1412       C  0.82412384  0.09129065  0.49628933    -0.23950
C1413       C  0.85220855  0.11047995  0.49238965     0.19070
C1414       C  0.86153341  0.11420657  0.47731586     0.24100
C1415       C  0.84295668  0.09880970  0.46581037    -0.23890
C1416       C  0.81598414  0.07823503  0.46978115     0.19000
F1417       F  0.79822243  0.06198875  0.45903770    -0.13850
F1418       F  0.77942782  0.05582608  0.48808255    -0.16210
F1419       F  0.88761861  0.13440089  0.47400484    -0.16220
F1420       F  0.87065972  0.12587196  0.50315504    -0.13850
C1421       C  0.62256395  0.36985270  0.71980958     0.24160
C1422       C  0.64877012  0.34784854  0.71547676    -0.23950
C1423       C  0.67058428  0.33457329  0.72652057     0.19070
C1424       C  0.66711391  0.34427874  0.74157173     0.24100
C1425       C  0.64176028  0.36762761  0.74589766    -0.23890
C1426       C  0.61896730  0.37958397  0.73484800     0.19000
F1427       F  0.59404866  0.40194978  0.73835837    -0.13850
F1428       F  0.60058057  0.38229187  0.70939400    -0.16210
F1429       F  0.68875455  0.33072990  0.75184369    -0.16220
F1430       F  0.69645693  0.31357843  0.72265276    -0.13850
C1431       C  0.86575656  0.05333820  0.72380855     0.24160
C1432       C  0.83790591  0.04230827  0.71555533    -0.23950
C1433       C  0.81305858  0.02372679  0.72282189     0.19070
C1434       C  0.81622306  0.01571953  0.73804081     0.24100
C1435       C  0.84460302  0.02567013  0.74625005    -0.23890
C1436       C  0.86932487  0.04470242  0.73904496     0.19000
F1437       F  0.89657982  0.05535168  0.74680074    -0.13850
F1438       F  0.88990440  0.07155225  0.71700559    -0.16210
F1439       F  0.79201746  0.99716080  0.74461307    -0.16220
F1440       F  0.78549469  0.01345176  0.71516756    -0.13850
N1441       N  0.79618707  0.49465409  0.82799576    -0.26730
N1442       N  0.82100474  0.49695703  0.83770709    -0.34580
C1443       C  0.81170647  0.48356186  0.85078157     0.01610
C1444       C  0.77894344  0.47221862  0.84956400     0.07640
C1445       C  0.76932789  0.48157511  0.83500902    -0.05460
H1446       H  0.82830500  0.48150799  0.86040602     0.08310
H1447       H  0.74501533  0.47911169  0.82975752     0.09510
Cu1448     Cu  0.86854020  0.51228665  0.83224576     0.44170
Cu1449     Cu  0.80738704  0.50118139  0.80550313     0.41990
Cu1450     Cu  0.90044951  0.47589397  0.80034915     0.43880
N1451       N  0.91764426  0.49631104  0.83096362    -0.34110
N1452       N  0.92821337  0.47553139  0.82039806    -0.28370
C1453       C  0.95415097  0.45664296  0.82600701    -0.04470
C1454       C  0.96028715  0.46704706  0.84076330     0.07750
C1455       C  0.93679130  0.49255063  0.84317869     0.01540
H1456       H  0.96522941  0.43511358  0.82034983     0.09200
H1457       H  0.93069701  0.50413769  0.85385914     0.08270
N1458       N  0.86741425  0.49553368  0.78388321    -0.35560
N1459       N  0.83526022  0.50408145  0.78582535    -0.27740
C1460       C  0.82275099  0.51639949  0.77286485    -0.02980
C1461       C  0.84797912  0.51604971  0.76224595     0.05630
C1462       C  0.87598738  0.50281617  0.76960050     0.03720
H1463       H  0.79707053  0.52526759  0.77134546     0.08830
H1464       H  0.90068023  0.49828215  0.76485636     0.07660
N1465       N  0.69455206  0.90569195  0.82691923    -0.26730
N1466       N  0.67042340  0.90066949  0.83668603    -0.34580
C1467       C  0.67954020  0.91289469  0.85003415     0.01610
C1468       C  0.71144510  0.92638964  0.84897329     0.07640
C1469       C  0.72087703  0.91948568  0.83413868    -0.05460
H1470       H  0.66332850  0.91267725  0.85977126     0.08310
H1471       H  0.74468647  0.92392548  0.82882390     0.09510
Cu1472     Cu  0.62351991  0.88343028  0.83122190     0.44170
Cu1473     Cu  0.68311222  0.90060896  0.80426947     0.41990
Cu1474     Cu  0.58872660  0.92003056  0.79999021     0.43880
N1475       N  0.57382853  0.89767393  0.83049696    -0.34110
N1476       N  0.56176436  0.91823289  0.82011504    -0.28370
C1477       C  0.53505462  0.93549085  0.82593003    -0.04470
C1478       C  0.53009954  0.92433483  0.84065745     0.07750
C1479       C  0.55504515  0.90005996  0.84282712     0.01540
H1480       H  0.52261813  0.95653422  0.82042031     0.09200
H1481       H  0.56207938  0.88831439  0.85338641     0.08270
N1482       N  0.62167575  0.90213064  0.78326061    -0.35560
N1483       N  0.65436500  0.89564037  0.78478971    -0.27740
C1484       C  0.66625356  0.88276253  0.77184684    -0.02980
C1485       C  0.64000439  0.88039977  0.76163549     0.05630
C1486       C  0.61215666  0.89299568  0.76932451     0.03720
H1487       H  0.69233737  0.87572609  0.77009927     0.08830
H1488       H  0.58647261  0.89450254  0.76532562     0.07660
C1489       C  0.51091284  0.93880761  0.85360803     0.01130
C1490       C  0.97866062  0.95078496  0.85358402     0.01130
N1491       N  0.71694708  0.89105607  0.63907165    -0.26730
N1492       N  0.74433492  0.87430131  0.63485078    -0.34580
C1493       C  0.75591156  0.88759112  0.62205012     0.01610
C1494       C  0.73510888  0.91423386  0.61807825     0.07640
C1495       C  0.71059231  0.91591868  0.62910613    -0.05460
H1496       H  0.77637008  0.87699163  0.61548355     0.08310
H1497       H  0.68863341  0.93238700  0.62928358     0.09510
Cu1498     Cu  0.75891225  0.82834761  0.64354645     0.44170
Cu1499     Cu  0.68762304  0.87493992  0.65683150     0.41990
Cu1500     Cu  0.69517716  0.78461682  0.66291912     0.43880
N1501       N  0.75101898  0.77792873  0.64068890    -0.34110
N1502       N  0.72485661  0.76242380  0.64636340    -0.28370
C1503       C  0.71887147  0.73489260  0.63802467    -0.04470
C1504       C  0.74269357  0.73314974  0.62669161     0.07750
C1505       C  0.76275198  0.76058530  0.62884448     0.01540
H1506       H  0.69697432  0.71938826  0.63915880     0.09200
H1507       H  0.78106279  0.76999663  0.62099260     0.08270
N1508       N  0.67380234  0.81793176  0.67831442    -0.35560
N1509       N  0.66995610  0.85055505  0.67578598    -0.27740
C1510       C  0.65828091  0.86548950  0.68832457    -0.02980
C1511       C  0.65505369  0.84129615  0.69936636     0.05630
C1512       C  0.66516991  0.81140711  0.69263957     0.03720
H1513       H  0.65514933  0.89238118  0.68969721     0.08830
H1514       H  0.66769208  0.78702731  0.69796330     0.07660
N1515       N  0.76916815  0.00401971  0.63910363    -0.26730
N1516       N  0.74338716  0.52295067  0.63465978    -0.34580
C1517       C  0.73111866  0.01067860  0.62174150     0.01610
C1518       C  0.74980294  0.98238177  0.61799104     0.07640
C1519       C  0.77380556  0.97876935  0.62922556    -0.05780
H1520       H  0.71182600  0.52291441  0.61497588     0.08310
H1521       H  0.79445158  0.96067730  0.62959047     0.09510
Cu1522     Cu  0.73289588  0.56968061  0.64358435     0.44170
Cu1523     Cu  0.79930071  0.51799421  0.65690993     0.41990
Cu1524     Cu  0.80280520  0.60839340  0.66212449     0.43880
N1525       N  0.74460668  0.61937807  0.64103360    -0.34110
N1526       N  0.77273945  0.63260003  0.64606544    -0.28370
C1527       C  0.77970969  0.65970873  0.63759883    -0.04470
C1528       C  0.75446641  0.66361513  0.62691346     0.07750
C1529       C  0.73259892  0.63789061  0.62956265     0.01540
H1530       H  0.80292647  0.67338005  0.63817831     0.09200
H1531       H  0.71256281  0.63009728  0.62215461     0.08270
N1532       N  0.82111695  0.57355138  0.67778008    -0.35560
N1533       N  0.81952445  0.54070510  0.67568033    -0.27740
C1534       C  0.82777764  0.52482992  0.68851714    -0.02980
C1535       C  0.83504518  0.54863077  0.69926617     0.05630
C1536       C  0.83072381  0.57933207  0.69209481     0.03720
H1537       H  0.82601863  0.49800013  0.69023513     0.08830
H1538       H  0.83139742  0.60391864  0.69726186     0.07660
C1539       C  0.74114790  0.71382778  0.61242584     0.01130
C1540       C  0.75559339  0.68247996  0.61251357     0.01130
N1541       N  0.80006482  0.67113321  0.38928453    -0.26730
N1542       N  0.81683264  0.69756287  0.38471129    -0.34580
C1543       C  0.80384107  0.70852554  0.37161016     0.01610
C1544       C  0.77737022  0.68829458  0.36783108     0.07640
C1545       C  0.77553878  0.66476395  0.37927276    -0.05460
H1546       H  0.81456958  0.72801929  0.36474034     0.08310
H1547       H  0.75928062  0.64330440  0.37970413     0.09510
Cu1548     Cu  0.86247648  0.71094448  0.39364361     0.44170
Cu1549     Cu  0.81608339  0.64251196  0.40746374     0.41990
Cu1550     Cu  0.90660021  0.64526316  0.41342331     0.43880
N1551       N  0.91329826  0.70207703  0.39158211    -0.34110
N1552       N  0.92898128  0.67532049  0.39723880    -0.28370
C1553       C  0.95714951  0.66926467  0.38919390    -0.04470
C1554       C  0.95913635  0.69366957  0.37810103     0.07750
C1555       C  0.93114941  0.71410329  0.38008854     0.01540
H1556       H  0.97295634  0.64696199  0.39029462     0.09200
H1557       H  0.92174943  0.73288283  0.37224471     0.08270
N1558       N  0.87314571  0.62476442  0.42875981    -0.35560
N1559       N  0.84036457  0.62345702  0.42634063    -0.27740
C1560       C  0.82526889  0.61228873  0.43881218    -0.02980
C1561       C  0.84950742  0.60639187  0.44975084     0.05630
C1562       C  0.87966194  0.61455536  0.44294477     0.03720
H1563       H  0.79829224  0.61109012  0.44016497     0.08830
H1564       H  0.90435352  0.61449730  0.44808191     0.07660
N1565       N  0.68760153  0.71990695  0.38877038    -0.26730
N1566       N  0.66953614  0.69417271  0.38437510    -0.34580
C1567       C  0.68138221  0.68262574  0.37118739     0.01610
C1568       C  0.70849512  0.70169789  0.36718280     0.07640
C1569       C  0.71184111  0.72519375  0.37856239    -0.05460
H1570       H  0.66985149  0.66315295  0.36456143     0.08310
H1571       H  0.72936457  0.74563538  0.37895523     0.09510
Cu1572     Cu  0.62440957  0.68202234  0.39404288     0.44170
Cu1573     Cu  0.67437825  0.74886881  0.40725139     0.41990
Cu1574     Cu  0.58426223  0.75081507  0.41322096     0.43880
N1575       N  0.57396726  0.69316675  0.39220052    -0.34110
N1576       N  0.56003255  0.72119980  0.39743889    -0.28370
C1577       C  0.53233889  0.72860490  0.38920620    -0.04470
C1578       C  0.52876807  0.70371697  0.37845642     0.07750
C1579       C  0.55531251  0.68159105  0.38083352     0.01540
H1580       H  0.51811170  0.75199371  0.38990820     0.09200
H1581       H  0.56357387  0.66192281  0.37321709     0.08270
N1582       N  0.61876405  0.76976974  0.42851264    -0.35560
N1583       N  0.65159057  0.76926734  0.42617404    -0.27740
C1584       C  0.66727938  0.77975593  0.43866776    -0.02980
C1585       C  0.64331923  0.78705669  0.44951165     0.05630
C1586       C  0.61276915  0.78046687  0.44263522     0.03720
H1587       H  0.69430756  0.77961397  0.44010208     0.08830
H1588       H  0.58807826  0.78192232  0.44768704     0.07660
C1589       C  0.50979192  0.70584102  0.36408615     0.01130
C1590       C  0.97865251  0.69211092  0.36388547     0.01130
N1591       N  0.79134412  0.64528386  0.57759492    -0.26730
N1592       N  0.79429004  0.62035275  0.58723876    -0.34580
C1593       C  0.78203897  0.63016112  0.60052227     0.01610
C1594       C  0.77072264  0.66336487  0.59953265     0.07640
C1595       C  0.77890316  0.67264172  0.58484823    -0.05460
H1596       H  0.78067231  0.61360495  0.61013740     0.08310
H1597       H  0.77597080  0.69705086  0.57967197     0.09510
Cu1598     Cu  0.80864473  0.57211654  0.58154455     0.44170
Cu1599     Cu  0.79675048  0.63390835  0.55497850     0.41990
Cu1600     Cu  0.76944215  0.54223665  0.55023237     0.43880
N1601       N  0.79197863  0.52385173  0.58050156    -0.34110
N1602       N  0.77053546  0.51410987  0.57014763    -0.28370
C1603       C  0.75223714  0.98864349  0.57586498    -0.04470
C1604       C  0.76359571  0.98206969  0.59049118     0.07750
C1605       C  0.78911014  0.50472914  0.59270190     0.01540
H1606       H  0.73052178  0.97813595  0.57039022     0.09200
H1607       H  0.80140682  0.51030118  0.60325813     0.08270
N1608       N  0.78934837  0.57377768  0.53361889    -0.35560
N1609       N  0.79932044  0.60518247  0.53542245    -0.27740
C1610       C  0.81313426  0.61585234  0.52254151    -0.02980
C1611       C  0.81213044  0.59019742  0.51207681     0.05630
C1612       C  0.79677874  0.56397172  0.51949357     0.03720
H1613       H  0.82301608  0.64072758  0.52093700     0.08830
H1614       H  0.79219460  0.53912247  0.51511507     0.07660
N1615       N  0.70214657  0.74915381  0.57761672    -0.26730
N1616       N  0.69817660  0.77385980  0.58728046    -0.34580
C1617       C  0.71131681  0.76462347  0.60052165     0.01610
C1618       C  0.72441071  0.73204521  0.59948608     0.07640
C1619       C  0.71627850  0.72244304  0.58480913    -0.05460
H1620       H  0.71205343  0.78120023  0.61013835     0.08310
H1621       H  0.72022904  0.69827544  0.57958010     0.09510
Cu1622     Cu  0.68140129  0.82139567  0.58157347     0.44170
Cu1623     Cu  0.69559493  0.76041533  0.55501120     0.41990
Cu1624     Cu  0.72004941  0.85286149  0.55041938     0.43880
N1625       N  0.69575691  0.87042942  0.58045313    -0.34110
N1626       N  0.71698333  0.88103666  0.57023975    -0.28370
C1627       C  0.73386384  0.90744213  0.57599930    -0.04470
C1628       C  0.72182410  0.91368642  0.59050287     0.07750
C1629       C  0.69737736  0.88987265  0.59259707     0.01540
H1630       H  0.75522176  0.91881854  0.57066253     0.09200
H1631       H  0.68509005  0.88387139  0.60307365     0.08270
N1632       N  0.70162021  0.82077395  0.53366902    -0.35560
N1633       N  0.69224358  0.78916420  0.53543860    -0.27740
C1634       C  0.67890858  0.77821144  0.52246845    -0.02980
C1635       C  0.67977009  0.80385726  0.51198839     0.05630
C1636       C  0.69443336  0.83038807  0.51946796     0.03720
H1637       H  0.66950055  0.75316105  0.52079159     0.08830
H1638       H  0.69869954  0.85528340  0.51506154     0.07660
C1639       C  0.74810717  0.96418883  0.60342202     0.01130
C1640       C  0.73614060  0.93242652  0.60348105     0.01130
N1641       N  0.95480392  0.64683551  0.13508112    -0.26730
N1642       N  0.94974576  0.62274723  0.12529843    -0.34580
C1643       C  0.96270176  0.63153684  0.11207120     0.01610
C1644       C  0.97674949  0.66319658  0.11328574     0.07640
C1645       C  0.96957460  0.67277722  0.12806133    -0.05460
H1646       H  0.96252492  0.61531706  0.10232473     0.08310
H1647       H  0.97452497  0.69637660  0.13347493     0.09510
Cu1648     Cu  0.93137587  0.57647947  0.13101183     0.44170
Cu1649     Cu  0.94775861  0.63543713  0.15746637     0.41990
Cu1650     Cu  0.96349075  0.54075331  0.16358178     0.43880
N1651       N  0.94360415  0.52640085  0.13251716    -0.34110
N1652       N  0.96283762  0.51380119  0.14329581    -0.28370
C1653       C  0.97983468  0.98656702  0.13775688    -0.04470
C1654       C  0.96993529  0.98195818  0.12278803     0.07750
C1655       C  0.94649150  0.50749093  0.12024602     0.01540
H1656       H  0.99993314  0.97345000  0.14366049     0.09200
H1657       H  0.93580305  0.51484875  0.10950589     0.08270
N1658       N  0.94648902  0.57607419  0.17966703    -0.35560
N1659       N  0.94117455  0.60868045  0.17721431    -0.27740
C1660       C  0.92986928  0.62321003  0.18986104    -0.02980
C1661       C  0.92769935  0.59903933  0.20090076     0.05630
C1662       C  0.93820653  0.56933991  0.19406849     0.03720
H1663       H  0.92371966  0.64970583  0.19091734     0.08830
H1664       H  0.94043539  0.54480742  0.19926936     0.07660
N1665       N  0.54489768  0.74826999  0.13461484    -0.26730
N1666       N  0.54576541  0.77349133  0.12509499    -0.34580
C1667       C  0.53194713  0.76424447  0.11207991     0.01610
C1668       C  0.52183186  0.73106398  0.11311341     0.07640
C1669       C  0.53213121  0.72126983  0.12753010    -0.05460
H1670       H  0.52897538  0.78106889  0.10259690     0.08310
H1671       H  0.53046689  0.69670937  0.13260566     0.09510
Cu1672     Cu  0.56022206  0.82116793  0.13083069     0.44170
Cu1673     Cu  0.55403675  0.75917011  0.15697951     0.41990
Cu1674     Cu  0.52236551  0.85031647  0.16285676     0.43880
N1675       N  0.54318607  0.86982823  0.13259483    -0.34110
N1676       N  0.52168142  0.87922783  0.14308109    -0.28370
C1677       C  0.50228418  0.90491807  0.13756833    -0.04470
C1678       C  0.51311863  0.91211659  0.12298101     0.07750
C1679       C  0.53941270  0.88951112  0.12057110     0.01540
H1680       H  0.48020061  0.91512085  0.14312115     0.09200
H1681       H  0.55149997  0.88421228  0.10992253     0.08270
N1682       N  0.54457071  0.81797679  0.17905148    -0.35560
N1683       N  0.55707473  0.78723476  0.17664484    -0.27740
C1684       C  0.57113402  0.77549210  0.18941770    -0.02980
C1685       C  0.56738620  0.79960077  0.20041771     0.05630
C1686       C  0.55012319  0.82602979  0.19357045     0.03720
H1687       H  0.58185050  0.75047157  0.19078280     0.08830
H1688       H  0.54176875  0.84923086  0.19882135     0.07660
C1689       C  0.98481962  0.96241301  0.10999026     0.01130
C1690       C  0.49647433  0.93003731  0.11012173     0.01130
N1691       N  0.54486474  0.74446521  0.32967278    -0.26730
N1692       N  0.57031867  0.74577440  0.33908106    -0.34580
C1693       C  0.56149309  0.73205589  0.35217045     0.01610
C1694       C  0.52837275  0.72150121  0.35124524     0.07640
C1695       C  0.51815889  0.73152773  0.33685851    -0.05460
H1696       H  0.57855126  0.72935529  0.36160417     0.08310
H1697       H  0.99352652  0.72951287  0.33184705     0.09510
Cu1698     Cu  0.61754022  0.76070780  0.33276076     0.44170
Cu1699     Cu  0.55524425  0.75279751  0.30726280     0.41990
Cu1700     Cu  0.64625154  0.72306948  0.30002574     0.43880
N1701       N  0.66663909  0.74550854  0.33010460    -0.34110
N1702       N  0.67576818  0.72360870  0.31971629    -0.28370
C1703       C  0.70172228  0.70454559  0.32524470    -0.04470
C1704       C  0.70946334  0.71608702  0.33968972     0.07750
C1705       C  0.68693920  0.74249636  0.34197910     0.01540
H1706       H  0.71168311  0.68215038  0.31985331     0.09200
H1707       H  0.68183293  0.75490570  0.35257505     0.08270
N1708       N  0.61198655  0.74359757  0.28410045    -0.35560
N1709       N  0.58122881  0.75518920  0.28709967    -0.27740
C1710       C  0.56783316  0.76903143  0.27465573    -0.02980
C1711       C  0.59055842  0.76581678  0.26296533     0.05630
C1712       C  0.61842369  0.74964637  0.26944943     0.03720
H1713       H  0.54322007  0.78098204  0.27438501     0.08830
H1714       H  0.64167406  0.74244498  0.26395503     0.07660
N1715       N  0.94415053  0.65479737  0.32886922    -0.26730
N1716       N  0.91990662  0.65007031  0.33859255    -0.34580
C1717       C  0.92884946  0.66266001  0.35189661     0.01610
C1718       C  0.96079859  0.67611847  0.35083790     0.07640
C1719       C  0.97035599  0.66894941  0.33603919    -0.05460
H1720       H  0.91255725  0.66259352  0.36160597     0.08310
H1721       H  0.99416646  0.67347245  0.33073108     0.09510
Cu1722     Cu  0.87337746  0.63231570  0.33280933     0.44170
Cu1723     Cu  0.93277402  0.64755132  0.30637971     0.41990
Cu1724     Cu  0.83789739  0.66286409  0.30000311     0.43880
N1725       N  0.82342833  0.64518813  0.33121786    -0.34110
N1726       N  0.81088576  0.66367046  0.32018307    -0.28370
C1727       C  0.78373102  0.68120431  0.32545543    -0.04470
C1728       C  0.77918194  0.67253253  0.34055082     0.07750
C1729       C  0.80460831  0.64916477  0.34344264     0.01540
H1730       H  0.77064333  0.70085453  0.31925985     0.09200
H1731       H  0.81193127  0.63921493  0.35432170     0.08270
N1732       N  0.87317974  0.64500231  0.28417534    -0.35560
N1733       N  0.90590276  0.64005743  0.28659358    -0.27740
C1734       C  0.92033432  0.62880130  0.27389784    -0.02980
C1735       C  0.89586894  0.62596149  0.26299990     0.05630
C1736       C  0.86624628  0.63642894  0.26982152     0.03720
H1737       H  0.94699911  0.62372825  0.27260004     0.08830
H1738       H  0.84171101  0.63884263  0.26459297     0.07660
C1739       C  0.72706726  0.69960168  0.35268651     0.01130
C1740       C  0.75960375  0.68840978  0.35307557     0.01130
N1741       N  0.55245644  0.91987470  0.88945383    -0.26730
N1742       N  0.56876190  0.94674937  0.88502195    -0.34580
C1743       C  0.55540956  0.95807936  0.87206886     0.01610
C1744       C  0.52922786  0.93765708  0.86819767     0.07640
C1745       C  0.52784958  0.91361257  0.87944801    -0.05460
H1746       H  0.56566661  0.97811108  0.86536304     0.08310
H1747       H  0.01171218  0.89205407  0.87979326     0.09510
Cu1748     Cu  0.61444680  0.96092765  0.89355192     0.44170
Cu1749     Cu  0.56877114  0.89086441  0.90755838     0.41990
Cu1750     Cu  0.65954981  0.89616512  0.91230200     0.43880
N1751       N  0.66493286  0.95226238  0.89031319    -0.34110
N1752       N  0.68108476  0.92569002  0.89584864    -0.28370
C1753       C  0.70872334  0.91952373  0.88748623    -0.04470
C1754       C  0.70982485  0.94365656  0.87626133     0.07750
C1755       C  0.68188048  0.96404274  0.87849166     0.01540
H1756       H  0.72478712  0.89739075  0.88853781     0.09200
H1757       H  0.67200592  0.98278090  0.87074188     0.08270
N1758       N  0.62758161  0.87623425  0.92825902    -0.35560
N1759       N  0.59475153  0.87324040  0.92635202    -0.27740
C1760       C  0.58115211  0.86248687  0.93928234    -0.02980
C1761       C  0.60653385  0.85904320  0.94986402     0.05630
C1762       C  0.63559298  0.86803761  0.94251986     0.03720
H1763       H  0.55444808  0.86009433  0.94120191     0.08830
H1764       H  0.66042371  0.87018801  0.94739418     0.07660
N1765       N  0.93867999  0.46908696  0.88973778    -0.26730
N1766       N  0.92045018  0.44389596  0.88485073    -0.34580
C1767       C  0.93278312  0.43293010  0.87166919     0.01610
C1768       C  0.96034407  0.45179337  0.86814403     0.07640
C1769       C  0.96349485  0.47459492  0.87981819    -0.05460
H1770       H  0.92108795  0.41427103  0.86463788     0.08310
H1771       H  0.98109266  0.49492923  0.88053886     0.09510
Cu1772     Cu  0.87419945  0.43209967  0.89346841     0.44170
Cu1773     Cu  0.92460052  0.49747571  0.90831011     0.41990
Cu1774     Cu  0.83346730  0.50065652  0.91182448     0.43880
N1775       N  0.82398574  0.44342149  0.89069869    -0.34110
N1776       N  0.80977997  0.47135680  0.89587553    -0.28370
C1777       C  0.78231751  0.47875325  0.88750717    -0.04470
C1778       C  0.77920795  0.45397999  0.87668532     0.07750
C1779       C  0.80580534  0.43193622  0.87915518     0.01540
H1780       H  0.76793182  0.50204890  0.88819872     0.09200
H1781       H  0.81430900  0.41227358  0.87158860     0.08270
N1782       N  0.86624619  0.51830729  0.92805651    -0.35560
N1783       N  0.89938001  0.51733943  0.92676978    -0.27740
C1784       C  0.91313842  0.52712853  0.93984737    -0.02980
C1785       C  0.88747152  0.53430766  0.94990638     0.05630
C1786       C  0.85809175  0.52852071  0.94200745     0.03720
H1787       H  0.93986712  0.52678428  0.94217003     0.08830
H1788       H  0.83264582  0.53027011  0.94623957     0.07660
C1789       C  0.72925076  0.94235216  0.86202885     0.01130
C1790       C  0.76035159  0.95612989  0.86228495     0.01130
N1791       N  0.96711519  0.00369607  0.07398423    -0.26730
N1792       N  0.99415196  0.51969243  0.07850895    -0.34580
C1793       C  0.00509749  0.00636719  0.09153290     0.01610
C1794       C  0.98424459  0.98051396  0.09535005     0.07640
C1795       C  0.96034644  0.97933059  0.08399415    -0.05460
H1796       H  0.02518698  0.51641975  0.09830825     0.08310
H1797       H  0.93854858  0.96350768  0.08357619     0.09510
Cu1798     Cu  0.00918297  0.56490770  0.06983830     0.44170
Cu1799     Cu  0.93862056  0.52014793  0.05573506     0.41990
Cu1800     Cu  0.94504797  0.61071467  0.05078733     0.43880
N1801       N  0.00204801  0.61579063  0.07244979    -0.34110
N1802       N  0.97571681  0.63226840  0.06684718    -0.28370
C1803       C  0.97032761  0.66038614  0.07498388    -0.04470
C1804       C  0.99470560  0.66149669  0.08613501     0.07750
C1805       C  0.01446380  0.63303965  0.08407899     0.01540
H1806       H  0.94836147  0.67669573  0.07393233     0.09200
H1807       H  0.03292932  0.62299887  0.09193142     0.08270
N1808       N  0.92425753  0.57883306  0.03499567    -0.35560
N1809       N  0.92119669  0.54605739  0.03690839    -0.27740
C1810       C  0.91021721  0.53243954  0.02399956    -0.02980
C1811       C  0.90665075  0.55775213  0.01340767     0.05630
C1812       C  0.91572613  0.58681753  0.02077417     0.03720
H1813       H  0.90766539  0.50575098  0.02211283     0.08830
H1814       H  0.91764195  0.61167699  0.01595560     0.07660
N1815       N  0.51527086  0.89099008  0.07371248    -0.26730
N1816       N  0.49087150  0.87183220  0.07863878    -0.34580
C1817       C  0.47994760  0.88348746  0.09195962     0.01610
C1818       C  0.49798923  0.91160235  0.09554456     0.07640
C1819       C  0.52031549  0.91571150  0.08375560    -0.05460
H1820       H  0.46179523  0.87110816  0.09898994     0.08310
H1821       H  0.53996797  0.93405110  0.08298975     0.09510
Cu1822     Cu  0.48026967  0.82559271  0.06964604     0.44170
Cu1823     Cu  0.54330973  0.87832212  0.05481824     0.41990
Cu1824     Cu  0.55128773  0.78755335  0.05170655     0.43880
N1825       N  0.49308433  0.77566272  0.07202081    -0.34110
N1826       N  0.52184439  0.76262661  0.06714317    -0.28370
C1827       C  0.52972605  0.73523292  0.07543206    -0.04470
C1828       C  0.50441769  0.73091844  0.08587485     0.07750
C1829       C  0.48154318  0.75672504  0.08326307     0.01540
H1830       H  0.55360172  0.72177716  0.07499341     0.09200
H1831       H  0.46119060  0.76434675  0.09063922     0.08270
N1832       N  0.56767800  0.82068062  0.03541784    -0.35560
N1833       N  0.56443089  0.85373028  0.03642724    -0.27740
C1834       C  0.57340808  0.86750706  0.02325654    -0.02980
C1835       C  0.58259957  0.84191816  0.01342588     0.05630
C1836       C  0.57878352  0.81258695  0.02159981     0.03720
H1837       H  0.57124108  0.89405913  0.02073864     0.08830
H1838       H  0.58250353  0.78708300  0.01766632     0.07660
C1839       C  0.99329438  0.68084222  0.10039706     0.01130
C1840       C  0.50656465  0.71213556  0.10025492     0.01130
C1841       C  0.87463179  0.53254507  0.99214323     0.24160
C1842       C  0.90042817  0.55341912  0.99715439    -0.23950
C1843       C  0.92128644  0.56879557  0.98653512     0.19070
C1844       C  0.91680286  0.56286801  0.97116393     0.24100
C1845       C  0.89107505  0.54185742  0.96612011    -0.23890
C1846       C  0.86978934  0.52700979  0.97675940     0.19000
F1847       F  0.84520400  0.50593149  0.97235414    -0.13850
F1848       F  0.85403946  0.51753122  0.00216462    -0.16210
F1849       F  0.93760312  0.57779438  0.96120619    -0.16220
F1850       F  0.94699383  0.58840102  0.99104865    -0.13850
C1851       C  0.57956445  0.82101992  0.98675945     0.24160
C1852       C  0.59041895  0.84523502  0.99719195    -0.23950
C1853       C  0.60767006  0.87341533  0.99187066     0.19070
C1854       C  0.61366698  0.87742741  0.97648675     0.24100
C1855       C  0.60220340  0.85358387  0.96612809    -0.23890
C1856       C  0.58519668  0.82535932  0.97135866     0.19000
F1857       F  0.57407215  0.80193153  0.96152328    -0.13850
F1858       F  0.56222109  0.79382484  0.99132403    -0.16210
F1859       F  0.62949542  0.90535000  0.97164908    -0.16220
F1860       F  0.61891905  0.89708572  0.00154914    -0.13850
C1861       C  0.54660671  0.78924635  0.22619531     0.24160
C1862       C  0.57376314  0.79442166  0.21657694    -0.23950
C1863       C  0.60668664  0.79117313  0.22219620     0.19070
C1864       C  0.61235972  0.78274064  0.23733974     0.24100
C1865       C  0.58507309  0.77640118  0.24700597    -0.23890
C1866       C  0.55207093  0.77987533  0.24115140     0.19000
F1867       F  0.52478378  0.77254773  0.24955914    -0.13850
F1868       F  0.51460503  0.79148448  0.22085307    -0.16210
F1869       F  0.64451857  0.78108923  0.24247383    -0.16220
F1870       F  0.63333107  0.79616716  0.21299844    -0.13850
C1871       C  0.93184741  0.63355487  0.22413325     0.24160
C1872       C  0.91894749  0.60522867  0.21681991    -0.23950
C1873       C  0.89728994  0.58395547  0.22472068     0.19070
C1874       C  0.88859584  0.59117172  0.23969780     0.24100
C1875       C  0.90205792  0.61927463  0.24695731    -0.23890
C1876       C  0.92367299  0.64032232  0.23906375     0.19000
F1877       F  0.93685919  0.66765954  0.24585879    -0.13850
F1878       F  0.95328703  0.65427648  0.21696008    -0.16210
F1879       F  0.86786952  0.57032903  0.24721948    -0.16220
F1880       F  0.88408986  0.55670178  0.21787240    -0.13850
C1881       C  0.63059855  0.78028439  0.47703011     0.24160
C1882       C  0.65004754  0.79460291  0.46556802    -0.23950
C1883       C  0.67774495  0.81419993  0.46960454     0.19070
C1884       C  0.68670320  0.81820368  0.48471864     0.24100
C1885       C  0.66827807  0.80250876  0.49612538    -0.23890
C1886       C  0.63968468  0.78414024  0.49214693     0.19000
F1887       F  0.62049906  0.76973959  0.50289223    -0.13850
F1888       F  0.60380929  0.76102497  0.47365096    -0.16210
F1889       F  0.71447676  0.83603705  0.48810082    -0.16220
F1890       F  0.69646415  0.82928207  0.45888652    -0.13850
C1891       C  0.80667677  0.57450097  0.48484111     0.24160
C1892       C  0.82412811  0.59129286  0.49628970    -0.23950
C1893       C  0.85221173  0.61048336  0.49238965     0.19070
C1894       C  0.86153578  0.61420989  0.47731575     0.24100
C1895       C  0.84295931  0.59881174  0.46581053    -0.23890
C1896       C  0.81598781  0.57823609  0.46978166     0.19000
F1897       F  0.79822637  0.56198875  0.45903845    -0.13850
F1898       F  0.77943335  0.55582601  0.48808351    -0.16210
F1899       F  0.88761991  0.63440527  0.47400435    -0.16220
F1900       F  0.87066265  0.62587658  0.50315477    -0.13850
C1901       C  0.62255818  0.86984837  0.71981002     0.24160
C1902       C  0.64876661  0.84784723  0.71547694    -0.23950
C1903       C  0.67058342  0.83457532  0.72652046     0.19070
C1904       C  0.66711308  0.84428086  0.74157162     0.24100
C1905       C  0.64175690  0.86762678  0.74589785    -0.23890
C1906       C  0.61896161  0.87957989  0.73484842     0.19000
F1907       F  0.59404039  0.90194268  0.73835892    -0.13850
F1908       F  0.60057235  0.88228422  0.70939469    -0.16210
F1909       F  0.68875625  0.83073482  0.75184323    -0.16220
F1910       F  0.69645838  0.81358362  0.72265234    -0.13850
C1911       C  0.86577079  0.55333854  0.72380855     0.24160
C1912       C  0.83791926  0.54231220  0.71555495    -0.23950
C1913       C  0.81306940  0.52373321  0.72282102     0.19070
C1914       C  0.81623222  0.51572473  0.73803989     0.24100
C1915       C  0.84461302  0.52567161  0.74624953    -0.23890
C1916       C  0.86933736  0.54470158  0.73904490     0.19000
F1917       F  0.89659322  0.55534735  0.74680105    -0.13850
F1918       F  0.88992108  0.57155013  0.71700601    -0.16210
F1919       F  0.79202423  0.49716823  0.74461165    -0.16220
F1920       F  0.78550493  0.51346141  0.71516619    -0.13850
loop_ 
_geom_bond_atom_site_label_1 
_geom_bond_atom_site_label_2 
_geom_bond_distance 
_geom_bond_site_symmetry_2 
_ccdc_geom_bond_type 
N1            N2   1.314       .  A
N1            C5   1.351       .  A
N1           Cu9   2.067   1_565  S
N2            C3   1.335       .  A
N2           Cu8   2.057   1_565  S
C3            C4   1.391       .  A
C3            H6   1.081       .  S
C4            C5   1.396       .  A
C4          C830   1.502       .  S
C5            H7   1.078       .  S
Cu8          N11   2.045   1_545  S
Cu9          N19   2.078       .  S
Cu10         N12   2.093       .  S
Cu10         N18   2.104       .  S
N11          N12   1.316       .  A
N11          C15   1.331       .  A
N12          C13   1.358       .  A
C13          C14   1.398       .  A
C13          H16   1.081       .  S
C14          C15   1.383       .  A
C14         C530   1.492       .  S
C15          H17   1.082   1_565  S
N18          N19   1.329   1_565  A
N18          C22   1.348   1_565  A
N19          C20   1.342       .  A
C20          C21   1.380       .  A
C20          H23   1.082       .  S
C21          C22   1.385       .  A
C21         C475   1.477       .  S
C22          H24   1.082   1_545  S
N25          N26   1.314       .  A
N25          C29   1.352       .  A
N25         Cu33   2.074       .  S
N26          C27   1.335       .  A
N26         Cu32   2.057       .  S
C27          C28   1.391       .  A
C27          H30   1.081       .  S
C28          C29   1.398       .  A
C28         C349   1.505       .  S
C29          H31   1.077       .  S
Cu32         N35   2.046       .  S
Cu33         N43   2.084       .  S
Cu34         N36   2.090       .  S
Cu34         N42   2.101       .  S
N35          N36   1.316       .  A
N35          C39   1.331       .  A
N36          C37   1.357       .  A
C37          C38   1.398       .  A
C37          H40   1.081       .  S
C38          C39   1.384       .  A
C38          C49   1.493       .  S
C39          H41   1.082       .  S
N42          N43   1.327       .  A
N42          C46   1.347       .  A
N43          C44   1.343       .  A
C44          C45   1.386       .  A
C44          H47   1.081       .  S
C45          C46   1.389       .  A
C45         C465   1.490       .  S
C46          H48   1.081       .  S
C49         C304   1.486       .  S
C49        C1010   1.360   1_455  D
C50         C494   1.492       .  S
C50         C808   1.487       .  S
C50        C1009   1.360       .  D
N51          N52   1.321       .  A
N51          C55   1.347       .  A
N51         Cu59   2.074       .  S
N52          C53   1.341       .  A
N52         Cu58   2.057       .  S
C53          C54   1.377       .  A
C53          H56   1.082       .  S
C54          C55   1.386       .  A
C54         C200   1.486       .  S
C55          H57   1.082       .  S
Cu58         N61   2.053       .  S
Cu59         N69   2.075       .  S
Cu60         N62   2.076       .  S
Cu60         N68   2.078       .  S
N61          N62   1.321       .  A
N61          C65   1.340       .  A
N62          C63   1.348       .  A
C63          C64   1.386       .  A
C63          H66   1.082       .  S
C64          C65   1.378       .  A
C64          C99   1.485       .  S
C65          H67   1.082       .  S
N68          N69   1.323       .  A
N68          C72   1.346       .  A
N69          C70   1.343       .  A
C70          C71   1.382       .  A
C70          H73   1.082       .  S
C71          C72   1.385       .  A
C71         C462   1.477       .  S
C72          H74   1.082       .  S
N75         N556   1.320       .  A
N75          C79   1.345       .  A
N75        Cu563   2.065       .  S
N76         N555   1.320       .  A
N76         C557   1.342       .  A
N76         Cu82   2.058       .  S
C77         N556   1.342       .  A
C77          C78   1.379       .  A
C77         H560   1.082       .  S
C78          C79   1.385       .  A
C78         C199   1.486       .  S
C79          H81   1.082       .  S
H80         C557   1.082       .  S
Cu82         N85   2.053       .  S
Cu83         N93   2.066       .  S
Cu83        N555   2.065       .  S
Cu84         N86   2.083       .  S
Cu84         N92   2.083       .  S
N85          N86   1.322       .  A
N85          C89   1.339       .  A
N86          C87   1.349       .  A
C87          C88   1.386       .  A
C87          H90   1.082       .  S
C88          C89   1.377       .  A
C88         C100   1.485       .  S
C89          H91   1.082       .  S
N92          N93   1.323       .  A
N92          C96   1.349       .  A
N93          C94   1.341       .  A
C94          C95   1.380       .  A
C94          H97   1.082   1_545  S
C95          C96   1.385       .  A
C95         C472   1.473       .  S
C96          H98   1.082       .  S
C99         C178   1.506       .  S
C99         C100   1.363       .  D
C100        C154   1.503       .  S
N101        N102   1.321       .  A
N101        C105   1.346       .  A
N101       Cu109   2.068       .  S
N102        C103   1.342       .  A
N102       Cu108   2.058       .  S
C103        C104   1.378       .  A
C103        H106   1.082       .  S
C104        C105   1.385       .  A
C104        C300   1.488       .  S
C105        H107   1.082       .  S
Cu108       N111   2.054       .  S
Cu109       N119   2.069       .  S
Cu110       N112   2.083       .  S
Cu110       N118   2.085       .  S
N111        N112   1.322       .  A
N111        C115   1.339       .  A
N112        C113   1.349       .  A
C113        C114   1.387       .  A
C113        H116   1.082       .  S
C114        C115   1.377       .  A
C114        C150   1.486       .  S
C115        H117   1.082       .  S
N118        N119   1.323       .  A
N118        C122   1.347       .  A
N119        C120   1.342       .  A
C120        C121   1.384       .  A
C120        H123   1.082       .  S
C121        C122   1.389       .  A
C121        C455   1.484       .  S
C122        H124   1.081       .  S
N125        N126   1.321       .  A
N125        C129   1.345       .  A
N125       Cu133   2.071       .  S
N126        C127   1.343       .  A
N126       Cu132   2.058       .  S
C127        C128   1.378       .  A
C127        H130   1.082       .  S
C128        C129   1.386       .  A
C128        C299   1.489       .  S
C129        H131   1.082       .  S
Cu132       N135   2.052       .  S
Cu133       N143   2.072       .  S
Cu134       N136   2.079       .  S
Cu134       N142   2.081       .  S
N135        N136   1.322       .  A
N135        C139   1.339       .  A
N136        C137   1.348       .  A
C137        C138   1.386       .  A
C137        H140   1.082       .  S
C138        C139   1.377       .  A
C138        C149   1.483       .  S
C139        H141   1.082       .  S
N142        N143   1.322       .  A
N142        C146   1.346       .  A
N143        C144   1.343       .  A
C144        C145   1.385       .  A
C144        H147   1.082       .  S
C145        C146   1.388       .  A
C145        C442   1.483       .  S
C146        H148   1.082       .  S
C149        C254   1.503       .  S
C149       C1110   1.363   1_455  D
C150        C278   1.506       .  S
C150       C1109   1.363       .  D
N151        N152   1.314       .  A
N151        C155   1.352       .  A
N151       Cu159   2.072       .  S
N152        C153   1.335       .  A
N152       Cu158   2.056       .  S
C153        C154   1.390       .  A
C153        H156   1.081       .  S
C154        C155   1.397       .  A
C155        H157   1.079       .  S
Cu158       N161   2.046       .  S
Cu159       N169   2.083       .  S
Cu160       N162   2.094       .  S
Cu160       N168   2.104       .  S
N161        N162   1.316       .  A
N161        C165   1.331       .  A
N162        C643   1.358   1_545  A
C163        N642   1.358       .  A
C163        C164   1.398       .  A
C163        H166   1.081       .  S
C164        C645   1.384       .  A
C164        C199   1.492       .  S
C165        C644   1.384   1_545  A
C165        H167   1.082       .  S
N168        N169   1.328       .  A
N168        C172   1.347       .  A
N169        C170   1.344       .  A
C170        C171   1.383       .  A
C170        H173   1.082       .  S
C171        C172   1.387       .  A
C171        C452   1.485       .  S
C172        H174   1.082       .  S
N175        N176   1.314       .  A
N175        C179   1.352       .  A
N175       Cu183   2.073       .  S
N176        C177   1.335       .  A
N176       Cu182   2.056       .  S
C177        C178   1.391       .  A
C177        H180   1.081       .  S
C178        C179   1.398       .  A
C179        H181   1.078       .  S
Cu182       N185   2.046       .  S
Cu183       N193   2.084       .  S
Cu184       N186   2.092       .  S
Cu184       N192   2.102       .  S
N185        N186   1.316       .  A
N185        C189   1.331       .  A
N186        C187   1.358       .  A
C187        C188   1.398       .  A
C187        H190   1.081       .  S
C188        C189   1.384       .  A
C188        C200   1.492       .  S
C189        H191   1.082       .  S
N192        N193   1.328       .  A
N192        C196   1.347       .  A
N193        C194   1.344       .  A
C194        C195   1.382       .  A
C194        H197   1.082       .  S
C195        C196   1.385       .  A
C195        C445   1.482       .  S
C196        H198   1.082       .  S
C199        C200   1.359       .  D
N201        N202   1.313       .  A
N201        C205   1.351       .  A
N201       Cu209   2.062       .  S
N202        C203   1.334       .  A
N202       Cu208   2.058       .  S
C203        C204   1.392       .  A
C203        H206   1.081       .  S
C204        C205   1.397       .  A
C204        C399   1.503       .  S
C205        H207   1.077       .  S
Cu208       N211   2.046       .  S
Cu209       N219   2.072       .  S
Cu210       N212   2.099       .  S
Cu210       N218   2.109       .  S
N211        N212   1.317       .  A
N211        C215   1.330       .  A
N212        C693   1.360   1_545  A
C213        N692   1.360       .  A
C213        C214   1.400       .  A
C213        H216   1.080       .  S
C214        C695   1.384       .  A
C214        C249   1.496       .  S
C215        C694   1.384   1_545  A
C215        H217   1.082       .  S
N218        N219   1.328       .  A
N218        C222   1.351       .  A
N219        C220   1.340       .  A
C220        C221   1.378       .  A
C220        H223   1.082       .  S
C221        C222   1.387       .  A
C221        C432   1.478       .  S
C222        H224   1.082       .  S
N225        N226   1.313       .  A
N225        C229   1.352       .  A
N225       Cu233   2.068       .  S
N226        C227   1.334       .  A
N226       Cu232   2.057       .  S
C227        C228   1.391       .  A
C227        H230   1.081       .  S
C228        C229   1.397       .  A
C228        C400   1.502       .  S
C229        H231   1.079       .  S
Cu232       N235   2.045       .  S
Cu233       N243   2.080       .  S
Cu234       N236   2.100       .  S
Cu234       N242   2.110       .  S
N235        N236   1.317       .  A
N235        C239   1.331       .  A
N236        C237   1.359       .  A
C237        C238   1.399       .  A
C237        H240   1.081   1_455  S
C238        C239   1.383       .  A
C238        C250   1.493   1_455  S
C239        H241   1.082       .  S
N242        N243   1.329       .  A
N242        C246   1.349       .  A
N243        C244   1.344       .  A
C244        C245   1.377       .  A
C244        H247   1.082       .  S
C245        C246   1.384       .  A
C245        C422   1.472       .  S
C246        H248   1.082       .  S
C249        C354   1.487       .  S
C249       C1210   1.361       .  D
C250        C378   1.490       .  S
C250       C1209   1.361       .  D
N251        N252   1.313       .  A
N251        C255   1.351       .  A
N251       Cu259   2.064       .  S
N252        C253   1.336       .  A
N252       Cu258   2.060       .  S
C253        C254   1.392       .  A
C253        H256   1.081       .  S
C254        C255   1.396       .  A
C255       H1217   1.079   1_455  S
H257       C1215   1.079       .  S
Cu258       N261   2.047       .  S
Cu259       N269   2.075       .  S
Cu260       N262   2.105       .  S
Cu260       N268   2.114       .  S
N261        N262   1.317       .  A
N261        C265   1.331       .  A
N262        C263   1.359       .  A
C263        C264   1.399       .  A
C263        H266   1.081       .  S
C264        C265   1.383       .  A
C264        C299   1.494       .  S
C265        H267   1.082       .  S
N268        N269   1.327       .  A
N268        C272   1.350       .  A
N269        C270   1.340       .  A
C270        C271   1.384       .  A
C270        H273   1.080       .  S
C271        C272   1.393       .  A
C271        C425   1.494       .  S
C272        H274   1.081       .  S
N275        N276   1.313       .  A
N275        C279   1.352       .  A
N275       Cu283   2.070       .  S
N276        C277   1.335       .  A
N276       Cu282   2.057       .  S
C277        C278   1.392       .  A
C277        H280   1.081       .  S
C278        C279   1.399       .  A
C279        H281   1.077       .  S
Cu282       N285   2.046       .  S
Cu283       N293   2.080       .  S
Cu284       N286   2.094       .  S
Cu284       N292   2.104       .  S
N285        N286   1.317       .  A
N285        C289   1.329       .  A
N286        C287   1.359       .  A
C287        C288   1.398       .  A
C287        H290   1.080       .  S
C288        C289   1.384       .  A
C288        C300   1.494       .  S
C289        H291   1.082       .  S
N292        N293   1.329       .  A
N292        C296   1.350       .  A
N293        C294   1.341       .  A
C294        C295   1.377       .  A
C294        H297   1.082       .  S
C295        C296   1.384       .  A
C295        C435   1.472       .  S
C296        H298   1.082       .  S
C299        C300   1.360       .  D
N301        N302   1.322       .  A
N301        C305   1.347       .  A
N301       Cu309   2.075       .  S
N302        C303   1.341       .  A
N302       Cu308   2.056       .  S
C303        C304   1.376       .  A
C303        H306   1.082       .  S
C304        C305   1.386       .  A
C305       H1267   1.082       .  S
H307       C1265   1.082       .  S
Cu308       N311   2.052       .  S
Cu309       N319   2.076       .  S
Cu310       N312   2.073       .  S
Cu310       N318   2.075       .  S
N311        N312   1.320       .  A
N311        C315   1.340       .  A
N312        C313   1.348       .  A
C313        C314   1.386       .  A
C313        H316   1.082       .  S
C314        C315   1.378       .  A
C314        C349   1.485       .  S
C315        H317   1.082       .  S
N318        N319   1.324       .  A
N318        C322   1.345       .  A
N319        C320   1.345       .  A
C320        C321   1.382       .  A
C320        H323   1.082       .  S
C321        C322   1.382       .  A
C321        C415   1.473       .  S
C322        H324   1.082       .  S
N325        N326   1.321       .  A
N325        C329   1.346       .  A
N325       Cu333   2.074       .  S
N326        C327   1.342       .  A
N326       Cu332   2.057       .  S
C327        C328   1.377       .  A
C327        H330   1.082       .  S
C328        C329   1.386       .  A
C328        C530   1.487       .  S
C329        H331   1.082       .  S
Cu332       N335   2.052       .  S
Cu333       N343   2.075   1_565  S
Cu334       N336   2.072   1_545  S
Cu334       N342   2.074       .  S
N335        N336   1.321       .  A
N335        C339   1.339       .  A
N336        C337   1.347       .  A
C337        C338   1.385       .  A
C337        H340   1.082   1_565  S
C338        C339   1.378       .  A
C338        C830   1.483       .  S
C339        H341   1.082       .  S
N342        N343   1.323       .  A
N342        C346   1.344       .  A
N343        C344   1.344       .  A
C344        C345   1.385       .  A
C344        H347   1.082       .  S
C345        C346   1.384       .  A
C345        C405   1.480       .  S
C346        H348   1.082       .  S
C349        C350   1.363       .  D
C350        C484   1.502       .  S
C350        C818   1.483       .  S
N351        N832   1.322       .  A
N351        C355   1.347       .  A
N351       Cu839   2.074       .  S
N352        N831   1.322       .  A
N352        C833   1.341       .  A
N352       Cu358   2.057       .  S
C353        N832   1.341       .  A
C353        C354   1.377       .  A
C353        H836   1.082       .  S
C354        C355   1.386       .  A
C355        H357   1.082       .  S
H356        C833   1.082       .  S
Cu358       N361   2.053       .  S
Cu359       N369   2.075       .  S
Cu359       N831   2.074       .  S
Cu360       N362   2.072       .  S
Cu360       N368   2.074       .  S
N361        N362   1.321       .  A
N361        C365   1.340       .  A
N362        C363   1.347       .  A
C363        C364   1.386       .  A
C363        H366   1.082       .  S
C364        C365   1.378       .  A
C364        C399   1.484       .  S
C365        H367   1.082       .  S
N368        N369   1.323       .  A
N368        C372   1.344       .  A
N369        C370   1.345       .  A
C370        C371   1.383       .  A
C370        H373   1.082       .  S
C371        C372   1.383       .  A
C371        C402   1.476   1_554  S
C372        H374   1.082       .  S
N375        N376   1.321   1_455  A
N375        C379   1.346       .  A
N375       Cu383   2.076       .  S
N376        C377   1.343       .  A
N376       Cu382   2.057       .  S
C377        C378   1.378       .  A
C377        H380   1.082       .  S
C378        C379   1.387   1_655  A
C379        H381   1.082       .  S
Cu382       N385   2.052       .  S
Cu383       N393   2.077       .  S
Cu384       N386   2.072       .  S
Cu384       N392   2.073       .  S
N385        N386   1.321   1_655  A
N385        C389   1.339       .  A
N386        C387   1.347       .  A
C387        C388   1.384       .  A
C387        H390   1.082       .  S
C388        C389   1.378   1_455  A
C388        C400   1.482       .  S
C389        H391   1.082       .  S
N392        N393   1.322       .  A
N392        C396   1.344       .  A
N393        C394   1.345       .  A
C394        C395   1.387       .  A
C394        H397   1.082       .  S
C395        C396   1.386       .  A
C395        C412   1.484   1_554  S
C396        H398   1.081       .  S
C399       C1360   1.362       .  D
C400       C1359   1.362   1_455  D
C401        C402   1.404       .  A
C401        C406   1.399       .  A
C401        F408   1.358   1_556  S
C402        C403   1.406       .  A
C403        C404   1.398       .  A
C403        F410   1.358       .  S
C404        C405   1.406       .  A
C404        F409   1.358       .  S
C405        C406   1.408       .  A
C406        F407   1.357       .  S
C411        C412   1.411       .  A
C411        C416   1.399       .  A
C411        F418   1.357       .  S
C412        C413   1.408       .  A
C413        C414   1.398       .  A
C413        F420   1.357   1_556  S
C414        C415   1.404       .  A
C414        F419   1.358       .  S
C415        C416   1.402       .  A
C416        F417   1.358       .  S
C421        C422   1.398       .  A
C421        C426   1.396       .  A
C421        F428   1.358       .  S
C422        C423   1.403       .  A
C423        C424   1.404       .  A
C423        F430   1.358       .  S
C424        C425   1.413       .  A
C424        F429   1.357       .  S
C425        C426   1.414       .  A
C426        F427   1.356       .  S
C431        C432   1.406       .  A
C431        C436   1.393       .  A
C431        F438   1.358       .  S
C432        C433   1.408       .  A
C433        C434   1.405       .  A
C433        F440   1.358       .  S
C434        C435   1.406       .  A
C434        F439   1.358       .  S
C435        C436   1.401       .  A
C436        F437   1.358       .  S
C441        C442   1.408       .  A
C441        C446   1.400       .  A
C441        F448   1.357       .  S
C442        C443   1.408       .  A
C443        C444   1.399       .  A
C443        F450   1.358       .  S
C444        C445   1.406       .  A
C444        F449   1.357       .  S
C445        C446   1.408       .  A
C446        F447   1.358       .  S
C451        C452   1.407       .  A
C451        C456   1.399       .  A
C451        F458   1.357       .  S
C452        C453   1.409       .  A
C453        C454   1.400       .  A
C453        F460   1.358       .  S
C454        C455   1.407       .  A
C454        F459   1.357       .  S
C455        C456   1.408       .  A
C456        F457   1.358       .  S
C461        C462   1.403       .  A
C461        C466   1.399       .  A
C461        F468   1.358       .  S
C462        C463   1.404       .  A
C463        C464   1.399       .  A
C463        F470   1.358       .  S
C464        C465   1.412       .  A
C464        F469   1.357       .  S
C465        C466   1.411       .  A
C466        F467   1.356       .  S
C471        C472   1.404       .  A
C471        C476   1.403       .  A
C471        F478   1.358       .  S
C472        C473   1.404       .  A
C473        C474   1.394       .  A
C473        F480   1.358       .  S
C474        C475   1.406       .  A
C474        F479   1.358   1_545  S
C475        C476   1.408       .  A
C476        F477   1.358       .  S
N481        N482   1.314       .  A
N481        C485   1.351       .  A
N481       Cu489   2.067       .  S
N482        C483   1.335       .  A
N482       Cu488   2.057       .  S
C483        C484   1.391       .  A
C483        H486   1.081       .  S
C484        C485   1.396       .  A
C485        H487   1.078       .  S
Cu488       N491   2.045       .  S
Cu489       N499   2.078       .  S
Cu490       N492   2.093       .  S
Cu490       N498   2.104       .  S
N491        N492   1.316       .  A
N491        C495   1.331       .  A
N492        C493   1.358       .  A
C493        C494   1.398       .  A
C493        H496   1.081       .  S
C494        C495   1.383       .  A
C495        H497   1.082       .  S
N498        N499   1.329       .  A
N498        C502   1.348       .  A
N499        C500   1.342       .  A
C500        C501   1.380       .  A
C500        H503   1.082       .  S
C501        C502   1.385       .  A
C501        C955   1.477       .  S
C502        H504   1.082       .  S
N505        N506   1.314       .  A
N505        C509   1.352       .  A
N505       Cu513   2.074       .  S
N506        C507   1.335       .  A
N506       Cu512   2.057       .  S
C507        C508   1.391       .  A
C507        H510   1.081       .  S
C508        C509   1.398       .  A
C508        C829   1.505       .  S
C509        H511   1.077       .  S
Cu512       N515   2.046       .  S
Cu513       N523   2.083       .  S
Cu514       N516   2.090       .  S
Cu514       N522   2.101       .  S
N515        N516   1.316       .  A
N515        C519   1.331       .  A
N516        C517   1.357       .  A
C517        C518   1.398       .  A
C517        H520   1.081       .  S
C518        C519   1.384       .  A
C518        C529   1.493       .  S
C519        H521   1.082       .  S
N522        N523   1.327       .  A
N522        C526   1.347       .  A
N523        C524   1.343       .  A
C524        C525   1.386       .  A
C524        H527   1.081       .  S
C525        C526   1.389       .  A
C525        C945   1.490       .  S
C526        H528   1.081       .  S
C529        C784   1.486       .  S
C529       C1490   1.360   1_455  D
C530       C1489   1.360       .  D
N531        N532   1.321       .  A
N531        C535   1.347       .  A
N531       Cu539   2.074       .  S
N532        C533   1.341       .  A
N532       Cu538   2.057       .  S
C533        C534   1.377       .  A
C533        H536   1.082       .  S
C534        C535   1.386       .  A
C534        C680   1.486       .  S
C535        H537   1.082       .  S
Cu538       N541   2.053       .  S
Cu539       N549   2.075       .  S
Cu540       N542   2.076       .  S
Cu540       N548   2.078       .  S
N541        N542   1.321       .  A
N541        C545   1.340       .  A
N542        C543   1.348       .  A
C543        C544   1.386       .  A
C543        H546   1.082       .  S
C544        C545   1.378       .  A
C544        C579   1.485       .  S
C545        H547   1.082       .  S
N548        N549   1.323       .  A
N548        C552   1.346       .  A
N549        C550   1.343       .  A
C550        C551   1.382       .  A
C550        H553   1.082       .  S
C551        C552   1.385       .  A
C551        C942   1.477       .  S
C552        H554   1.082       .  S
N555        C559   1.345   1_545  A
N556       Cu562   2.058       .  S
C557        C558   1.379   1_545  A
C558        C559   1.385       .  A
C558        C679   1.486       .  S
C559        H561   1.082       .  S
Cu562       N565   2.053       .  S
Cu563       N573   2.066       .  S
Cu564       N566   2.083       .  S
Cu564       N572   2.083       .  S
N565        N566   1.322       .  A
N565        C569   1.339       .  A
N566        C567   1.349       .  A
C567        C568   1.386       .  A
C567        H570   1.082       .  S
C568        C569   1.377       .  A
C568        C580   1.485       .  S
C569        H571   1.082       .  S
N572        N573   1.323       .  A
N572        C576   1.349       .  A
N573        C574   1.341       .  A
C574        C575   1.380       .  A
C574        H577   1.082       .  S
C575        C576   1.385       .  A
C575        C952   1.473       .  S
C576        H578   1.082       .  S
C579        C658   1.506       .  S
C579        C580   1.363       .  D
C580        C634   1.503       .  S
N581        N582   1.321       .  A
N581        C585   1.346       .  A
N581       Cu589   2.068       .  S
N582        C583   1.342       .  A
N582       Cu588   2.058       .  S
C583        C584   1.378       .  A
C583        H586   1.082       .  S
C584        C585   1.385       .  A
C584        C780   1.488       .  S
C585        H587   1.082       .  S
Cu588       N591   2.054       .  S
Cu589       N599   2.069       .  S
Cu590       N592   2.083       .  S
Cu590       N598   2.085       .  S
N591        N592   1.322       .  A
N591        C595   1.339       .  A
N592        C593   1.349       .  A
C593        C594   1.387       .  A
C593        H596   1.082       .  S
C594        C595   1.377       .  A
C594        C630   1.486       .  S
C595        H597   1.082       .  S
N598        N599   1.323       .  A
N598        C602   1.347       .  A
N599        C600   1.342       .  A
C600        C601   1.384       .  A
C600        H603   1.082       .  S
C601        C602   1.389       .  A
C601        C935   1.484       .  S
C602        H604   1.081       .  S
N605        N606   1.321       .  A
N605        C609   1.345       .  A
N605       Cu613   2.071       .  S
N606        C607   1.343       .  A
N606       Cu612   2.058       .  S
C607        C608   1.378       .  A
C607        H610   1.082       .  S
C608        C609   1.386       .  A
C608        C779   1.489       .  S
C609        H611   1.082       .  S
Cu612       N615   2.052       .  S
Cu613       N623   2.072       .  S
Cu614       N616   2.079       .  S
Cu614       N622   2.081       .  S
N615        N616   1.322       .  A
N615        C619   1.339       .  A
N616        C617   1.348       .  A
C617        C618   1.386       .  A
C617        H620   1.082       .  S
C618        C619   1.377       .  A
C618        C629   1.483       .  S
C619        H621   1.082       .  S
N622        N623   1.322       .  A
N622        C626   1.346       .  A
N623        C624   1.343       .  A
C624        C625   1.385       .  A
C624        H627   1.082       .  S
C625        C626   1.388       .  A
C625        C922   1.483       .  S
C626        H628   1.082       .  S
C629        C734   1.503       .  S
C629       C1590   1.363   1_455  D
C630        C758   1.506       .  S
C630       C1589   1.363       .  D
N631        N632   1.314       .  A
N631        C635   1.352       .  A
N631       Cu639   2.072       .  S
N632        C633   1.335       .  A
N632       Cu638   2.056       .  S
C633        C634   1.390       .  A
C633        H636   1.081       .  S
C634        C635   1.397       .  A
C635        H637   1.079       .  S
Cu638       N641   2.046       .  S
Cu639       N649   2.083       .  S
Cu640       N642   2.094       .  S
Cu640       N648   2.104       .  S
N641        N642   1.316       .  A
N641        C645   1.331       .  A
C643        C644   1.398       .  A
C643        H646   1.081       .  S
C644        C679   1.492       .  S
C645        H647   1.082       .  S
N648        N649   1.328       .  A
N648        C652   1.347       .  A
N649        C650   1.344       .  A
C650        C651   1.383       .  A
C650        H653   1.082       .  S
C651        C652   1.387       .  A
C651        C932   1.485       .  S
C652        H654   1.082       .  S
N655        N656   1.314       .  A
N655        C659   1.352       .  A
N655       Cu663   2.073       .  S
N656        C657   1.335       .  A
N656       Cu662   2.056       .  S
C657        C658   1.391       .  A
C657        H660   1.081       .  S
C658        C659   1.398       .  A
C659        H661   1.078       .  S
Cu662       N665   2.046       .  S
Cu663       N673   2.084       .  S
Cu664       N666   2.092       .  S
Cu664       N672   2.102       .  S
N665        N666   1.316       .  A
N665        C669   1.331       .  A
N666        C667   1.358       .  A
C667        C668   1.397       .  A
C667        H670   1.081       .  S
C668        C669   1.384       .  A
C668        C680   1.492       .  S
C669        H671   1.082       .  S
N672        N673   1.328       .  A
N672        C676   1.347       .  A
N673        C674   1.344       .  A
C674        C675   1.382       .  A
C674        H677   1.082       .  S
C675        C676   1.385       .  A
C675        C925   1.482       .  S
C676        H678   1.082       .  S
C679        C680   1.359       .  D
N681        N682   1.313       .  A
N681        C685   1.351       .  A
N681       Cu689   2.062       .  S
N682        C683   1.334       .  A
N682       Cu688   2.058       .  S
C683        C684   1.392       .  A
C683        H686   1.081       .  S
C684        C685   1.397       .  A
C684        C879   1.503       .  S
C685        H687   1.077       .  S
Cu688       N691   2.046       .  S
Cu689       N699   2.072       .  S
Cu690       N692   2.099       .  S
Cu690       N698   2.109       .  S
N691        N692   1.317       .  A
N691        C695   1.330       .  A
C693        C694   1.400       .  A
C693        H696   1.080       .  S
C694        C729   1.496       .  S
C695        H697   1.082       .  S
N698        N699   1.328       .  A
N698        C702   1.351       .  A
N699        C700   1.340       .  A
C700        C701   1.378       .  A
C700        H703   1.082       .  S
C701        C702   1.387       .  A
C701        C912   1.478       .  S
C702        H704   1.082       .  S
N705        N706   1.313       .  A
N705        C709   1.352       .  A
N705       Cu713   2.068       .  S
N706        C707   1.334       .  A
N706       Cu712   2.057       .  S
C707        C708   1.391       .  A
C707        H710   1.081       .  S
C708        C709   1.397       .  A
C708        C880   1.502       .  S
C709        H711   1.079       .  S
Cu712       N715   2.045       .  S
Cu713       N723   2.080       .  S
Cu714       N716   2.100       .  S
Cu714       N722   2.110       .  S
N715        N716   1.317       .  A
N715        C719   1.331       .  A
N716        C717   1.359       .  A
C717        C718   1.399       .  A
C717        H720   1.081   1_455  S
C718        C719   1.383       .  A
C718        C730   1.493   1_455  S
C719        H721   1.082       .  S
N722        N723   1.329       .  A
N722        C726   1.349       .  A
N723        C724   1.344       .  A
C724        C725   1.377       .  A
C724        H727   1.082       .  S
C725        C726   1.384       .  A
C725        C902   1.472       .  S
C726        H728   1.082       .  S
C729        C834   1.487       .  S
C729       C1690   1.361       .  D
C730        C858   1.490       .  S
C730       C1689   1.361       .  D
N731        N732   1.313       .  A
N731        C735   1.351       .  A
N731       Cu739   2.064       .  S
N732        C733   1.336       .  A
N732       Cu738   2.060       .  S
C733        C734   1.392       .  A
C733        H736   1.081       .  S
C734        C735   1.396       .  A
C735       H1697   1.079   1_455  S
H737       C1695   1.079       .  S
Cu738       N741   2.047       .  S
Cu739       N749   2.075       .  S
Cu740       N742   2.105       .  S
Cu740       N748   2.114       .  S
N741        N742   1.317       .  A
N741        C745   1.331       .  A
N742        C743   1.359       .  A
C743        C744   1.399       .  A
C743        H746   1.081       .  S
C744        C745   1.383       .  A
C744        C779   1.494       .  S
C745        H747   1.082       .  S
N748        N749   1.327       .  A
N748        C752   1.350       .  A
N749        C750   1.340       .  A
C750        C751   1.384       .  A
C750        H753   1.080       .  S
C751        C752   1.393       .  A
C751        C905   1.494       .  S
C752        H754   1.081       .  S
N755        N756   1.313       .  A
N755        C759   1.352       .  A
N755       Cu763   2.070       .  S
N756        C757   1.335       .  A
N756       Cu762   2.057       .  S
C757        C758   1.392       .  A
C757        H760   1.081       .  S
C758        C759   1.399       .  A
C759        H761   1.077       .  S
Cu762       N765   2.046       .  S
Cu763       N773   2.080       .  S
Cu764       N766   2.094       .  S
Cu764       N772   2.104       .  S
N765        N766   1.317       .  A
N765        C769   1.329       .  A
N766        C767   1.359       .  A
C767        C768   1.398       .  A
C767        H770   1.080       .  S
C768        C769   1.384       .  A
C768        C780   1.494       .  S
C769        H771   1.082       .  S
N772        N773   1.329       .  A
N772        C776   1.350       .  A
N773        C774   1.341       .  A
C774        C775   1.377       .  A
C774        H777   1.082       .  S
C775        C776   1.384       .  A
C775        C915   1.472       .  S
C776        H778   1.082       .  S
C779        C780   1.360       .  D
N781        N782   1.322       .  A
N781        C785   1.347       .  A
N781       Cu789   2.075       .  S
N782        C783   1.341       .  A
N782       Cu788   2.056       .  S
C783        C784   1.376       .  A
C783        H786   1.082       .  S
C784        C785   1.386       .  A
C785       H1747   1.082       .  S
H787       C1745   1.082       .  S
Cu788       N791   2.052       .  S
Cu789       N799   2.076       .  S
Cu790       N792   2.073       .  S
Cu790       N798   2.075       .  S
N791        N792   1.320       .  A
N791        C795   1.340       .  A
N792        C793   1.348       .  A
C793        C794   1.386       .  A
C793        H796   1.082       .  S
C794        C795   1.378       .  A
C794        C829   1.485       .  S
C795        H797   1.082       .  S
N798        N799   1.324       .  A
N798        C802   1.345       .  A
N799        C800   1.345       .  A
C800        C801   1.382       .  A
C800        H803   1.082       .  S
C801        C802   1.382       .  A
C801        C895   1.473       .  S
C802        H804   1.082       .  S
N805        N806   1.321       .  A
N805        C809   1.346       .  A
N805       Cu813   2.074       .  S
N806        C807   1.342       .  A
N806       Cu812   2.057       .  S
C807        C808   1.377       .  A
C807        H810   1.082       .  S
C808        C809   1.386       .  A
C809        H811   1.082       .  S
Cu812       N815   2.052       .  S
Cu813       N823   2.075       .  S
Cu814       N816   2.072       .  S
Cu814       N822   2.074       .  S
N815        N816   1.321       .  A
N815        C819   1.339       .  A
N816        C817   1.347       .  A
C817        C818   1.385       .  A
C817        H820   1.082       .  S
C818        C819   1.378       .  A
C819        H821   1.082       .  S
N822        N823   1.323       .  A
N822        C826   1.344       .  A
N823        C824   1.344       .  A
C824        C825   1.385       .  A
C824        H827   1.082       .  S
C825        C826   1.384       .  A
C825        C885   1.480       .  S
C826        H828   1.082       .  S
C829        C830   1.363       .  D
N831        C835   1.347   1_545  A
N832       Cu838   2.057       .  S
C833        C834   1.377   1_545  A
C834        C835   1.386       .  A
C835        H837   1.082       .  S
Cu838       N841   2.053       .  S
Cu839       N849   2.075       .  S
Cu840       N842   2.072       .  S
Cu840       N848   2.074       .  S
N841        N842   1.321       .  A
N841        C845   1.340       .  A
N842        C843   1.347       .  A
C843        C844   1.386       .  A
C843        H846   1.082       .  S
C844        C845   1.378       .  A
C844        C879   1.484       .  S
C845        H847   1.082       .  S
N848        N849   1.323       .  A
N848        C852   1.344       .  A
N849        C850   1.345       .  A
C850        C851   1.383       .  A
C850        H853   1.082       .  S
C851        C852   1.383       .  A
C851        C882   1.476   1_554  S
C852        H854   1.082       .  S
N855        N856   1.321   1_455  A
N855        C859   1.346       .  A
N855       Cu863   2.076       .  S
N856        C857   1.343       .  A
N856       Cu862   2.057       .  S
C857        C858   1.378       .  A
C857        H860   1.082       .  S
C858        C859   1.387   1_655  A
C859        H861   1.082       .  S
Cu862       N865   2.052       .  S
Cu863       N873   2.077       .  S
Cu864       N866   2.072       .  S
Cu864       N872   2.073       .  S
N865        N866   1.321   1_655  A
N865        C869   1.339       .  A
N866        C867   1.347       .  A
C867        C868   1.384       .  A
C867        H870   1.082       .  S
C868        C869   1.378   1_455  A
C868        C880   1.482       .  S
C869        H871   1.082       .  S
N872        N873   1.322       .  A
N872        C876   1.344       .  A
N873        C874   1.345       .  A
C874        C875   1.387       .  A
C874        H877   1.082       .  S
C875        C876   1.386       .  A
C875        C892   1.484   1_554  S
C876        H878   1.081       .  S
C879       C1840   1.362       .  D
C880       C1839   1.362   1_455  D
C881        C882   1.404       .  A
C881        C886   1.399       .  A
C881        F888   1.358   1_556  S
C882        C883   1.406       .  A
C883        C884   1.398       .  A
C883        F890   1.358       .  S
C884        C885   1.406       .  A
C884        F889   1.358       .  S
C885        C886   1.408       .  A
C886        F887   1.357       .  S
C891        C892   1.411       .  A
C891        C896   1.399       .  A
C891        F898   1.357       .  S
C892        C893   1.408       .  A
C893        C894   1.398       .  A
C893        F900   1.357   1_556  S
C894        C895   1.404       .  A
C894        F899   1.358       .  S
C895        C896   1.402       .  A
C896        F897   1.358       .  S
C901        C902   1.398       .  A
C901        C906   1.396       .  A
C901        F908   1.358       .  S
C902        C903   1.403       .  A
C903        C904   1.404       .  A
C903        F910   1.358       .  S
C904        C905   1.413       .  A
C904        F909   1.357       .  S
C905        C906   1.414       .  A
C906        F907   1.356       .  S
C911        C912   1.406       .  A
C911        C916   1.393       .  A
C911        F918   1.358       .  S
C912        C913   1.408       .  A
C913        C914   1.405       .  A
C913        F920   1.358       .  S
C914        C915   1.406       .  A
C914        F919   1.358       .  S
C915        C916   1.401       .  A
C916        F917   1.358       .  S
C921        C922   1.408       .  A
C921        C926   1.400       .  A
C921        F928   1.357       .  S
C922        C923   1.408       .  A
C923        C924   1.399       .  A
C923        F930   1.358       .  S
C924        C925   1.406       .  A
C924        F929   1.357       .  S
C925        C926   1.408       .  A
C926        F927   1.358       .  S
C931        C932   1.407       .  A
C931        C936   1.399       .  A
C931        F938   1.357       .  S
C932        C933   1.409       .  A
C933        C934   1.400       .  A
C933        F940   1.358       .  S
C934        C935   1.407       .  A
C934        F939   1.357       .  S
C935        C936   1.408       .  A
C936        F937   1.358       .  S
C941        C942   1.403       .  A
C941        C946   1.399       .  A
C941        F948   1.358       .  S
C942        C943   1.404       .  A
C943        C944   1.399       .  A
C943        F950   1.358       .  S
C944        C945   1.412       .  A
C944        F949   1.357       .  S
C945        C946   1.411       .  A
C946        F947   1.356       .  S
C951        C952   1.404       .  A
C951        C956   1.403       .  A
C951        F958   1.358       .  S
C952        C953   1.404       .  A
C953        C954   1.394       .  A
C953        F960   1.358       .  S
C954        C955   1.406       .  A
C954        F959   1.358       .  S
C955        C956   1.408       .  A
C956        F957   1.358       .  S
N961        N962   1.314       .  A
N961        C965   1.351       .  A
N961       Cu969   2.067   1_565  S
N962        C963   1.335       .  A
N962       Cu968   2.057   1_565  S
C963        C964   1.391       .  A
C963        H966   1.081       .  S
C964        C965   1.396       .  A
C964       C1790   1.502       .  S
C965        H967   1.078       .  S
Cu968       N971   2.045   1_545  S
Cu969       N979   2.078       .  S
Cu970       N972   2.093       .  S
Cu970       N978   2.104       .  S
N971        N972   1.316       .  A
N971        C975   1.331       .  A
N972        C973   1.358       .  A
C973        C974   1.398       .  A
C973        H976   1.081       .  S
C974        C975   1.383       .  A
C974       C1490   1.492       .  S
C975        H977   1.082   1_565  S
N978        N979   1.329   1_565  A
N978        C982   1.348   1_565  A
N979        C980   1.342       .  A
C980        C981   1.380       .  A
C980        H983   1.082       .  S
C981        C982   1.385       .  A
C981       C1435   1.477       .  S
C982        H984   1.082   1_545  S
N985        N986   1.314       .  A
N985        C989   1.352       .  A
N985       Cu993   2.074       .  S
N986        C987   1.335       .  A
N986       Cu992   2.057       .  S
C987        C988   1.391       .  A
C987        H990   1.081       .  S
C988        C989   1.398       .  A
C988       C1309   1.505       .  S
C989        H991   1.077       .  S
Cu992       N995   2.046       .  S
Cu993      N1003   2.083       .  S
Cu994       N996   2.090       .  S
Cu994      N1002   2.101       .  S
N995        N996   1.316       .  A
N995        C999   1.331       .  A
N996        C997   1.357       .  A
C997        C998   1.398       .  A
C997       H1000   1.081       .  S
C998        C999   1.384       .  A
C998       C1009   1.493       .  S
C999       H1001   1.082       .  S
N1002      N1003   1.327       .  A
N1002      C1006   1.347       .  A
N1003      C1004   1.343       .  A
C1004      C1005   1.386       .  A
C1004      H1007   1.081       .  S
C1005      C1006   1.389       .  A
C1005      C1425   1.490       .  S
C1006      H1008   1.081       .  S
C1009      C1264   1.486       .  S
C1010      C1454   1.492       .  S
C1010      C1768   1.487       .  S
N1011      N1012   1.321       .  A
N1011      C1015   1.347       .  A
N1011     Cu1019   2.074       .  S
N1012      C1013   1.341       .  A
N1012     Cu1018   2.057       .  S
C1013      C1014   1.377       .  A
C1013      H1016   1.082       .  S
C1014      C1015   1.386       .  A
C1014      C1160   1.486       .  S
C1015      H1017   1.082       .  S
Cu1018     N1021   2.053       .  S
Cu1019     N1029   2.075       .  S
Cu1020     N1022   2.076       .  S
Cu1020     N1028   2.078       .  S
N1021      N1022   1.321       .  A
N1021      C1025   1.340       .  A
N1022      C1023   1.348       .  A
C1023      C1024   1.386       .  A
C1023      H1026   1.082       .  S
C1024      C1025   1.378       .  A
C1024      C1059   1.485       .  S
C1025      H1027   1.082       .  S
N1028      N1029   1.323       .  A
N1028      C1032   1.346       .  A
N1029      C1030   1.343       .  A
C1030      C1031   1.382       .  A
C1030      H1033   1.082       .  S
C1031      C1032   1.385       .  A
C1031      C1422   1.477       .  S
C1032      H1034   1.082       .  S
N1035      N1516   1.320       .  A
N1035      C1039   1.345       .  A
N1035     Cu1523   2.065       .  S
N1036      N1515   1.320       .  A
N1036      C1517   1.342       .  A
N1036     Cu1042   2.058       .  S
C1037      N1516   1.342       .  A
C1037      C1038   1.379       .  A
C1037      H1520   1.082       .  S
C1038      C1039   1.385       .  A
C1038      C1159   1.486       .  S
C1039      H1041   1.082       .  S
H1040      C1517   1.082       .  S
Cu1042     N1045   2.053       .  S
Cu1043     N1515   2.065       .  S
Cu1043     N1053   2.066       .  S
Cu1044     N1046   2.083       .  S
Cu1044     N1052   2.083       .  S
N1045      N1046   1.322       .  A
N1045      C1049   1.339       .  A
N1046      C1047   1.349       .  A
C1047      C1048   1.386       .  A
C1047      H1050   1.082       .  S
C1048      C1049   1.377       .  A
C1048      C1060   1.485       .  S
C1049      H1051   1.082       .  S
N1052      N1053   1.323       .  A
N1052      C1056   1.349       .  A
N1053      C1054   1.341       .  A
C1054      C1055   1.380       .  A
C1054      H1057   1.082   1_545  S
C1055      C1056   1.385       .  A
C1055      C1432   1.473       .  S
C1056      H1058   1.082       .  S
C1059      C1138   1.506       .  S
C1059      C1060   1.363       .  D
C1060      C1114   1.503       .  S
N1061      N1062   1.321       .  A
N1061      C1065   1.346       .  A
N1061     Cu1069   2.068       .  S
N1062      C1063   1.342       .  A
N1062     Cu1068   2.058       .  S
C1063      C1064   1.378       .  A
C1063      H1066   1.082       .  S
C1064      C1065   1.385       .  A
C1064      C1260   1.488       .  S
C1065      H1067   1.082       .  S
Cu1068     N1071   2.054       .  S
Cu1069     N1079   2.069       .  S
Cu1070     N1072   2.083       .  S
Cu1070     N1078   2.085       .  S
N1071      N1072   1.322       .  A
N1071      C1075   1.339       .  A
N1072      C1073   1.349       .  A
C1073      C1074   1.387       .  A
C1073      H1076   1.082       .  S
C1074      C1075   1.377       .  A
C1074      C1110   1.486       .  S
C1075      H1077   1.082       .  S
N1078      N1079   1.323       .  A
N1078      C1082   1.347       .  A
N1079      C1080   1.342       .  A
C1080      C1081   1.384       .  A
C1080      H1083   1.082       .  S
C1081      C1082   1.389       .  A
C1081      C1415   1.484       .  S
C1082      H1084   1.081       .  S
N1085      N1086   1.321       .  A
N1085      C1089   1.345       .  A
N1085     Cu1093   2.071       .  S
N1086      C1087   1.343       .  A
N1086     Cu1092   2.058       .  S
C1087      C1088   1.378       .  A
C1087      H1090   1.082       .  S
C1088      C1089   1.386       .  A
C1088      C1259   1.489       .  S
C1089      H1091   1.082       .  S
Cu1092     N1095   2.052       .  S
Cu1093     N1103   2.072       .  S
Cu1094     N1096   2.079       .  S
Cu1094     N1102   2.081       .  S
N1095      N1096   1.322       .  A
N1095      C1099   1.339       .  A
N1096      C1097   1.348       .  A
C1097      C1098   1.386       .  A
C1097      H1100   1.082       .  S
C1098      C1099   1.377       .  A
C1098      C1109   1.483       .  S
C1099      H1101   1.082       .  S
N1102      N1103   1.322       .  A
N1102      C1106   1.346       .  A
N1103      C1104   1.343       .  A
C1104      C1105   1.385       .  A
C1104      H1107   1.082       .  S
C1105      C1106   1.388       .  A
C1105      C1402   1.483       .  S
C1106      H1108   1.082       .  S
C1109      C1214   1.503       .  S
C1110      C1238   1.506       .  S
N1111      N1112   1.314       .  A
N1111      C1115   1.352       .  A
N1111     Cu1119   2.072       .  S
N1112      C1113   1.335       .  A
N1112     Cu1118   2.056       .  S
C1113      C1114   1.390       .  A
C1113      H1116   1.081       .  S
C1114      C1115   1.397       .  A
C1115      H1117   1.079       .  S
Cu1118     N1121   2.046       .  S
Cu1119     N1129   2.083       .  S
Cu1120     N1122   2.094       .  S
Cu1120     N1128   2.104       .  S
N1121      N1122   1.316       .  A
N1121      C1125   1.331       .  A
N1122      C1603   1.358   1_545  A
C1123      N1602   1.358       .  A
C1123      C1124   1.398       .  A
C1123      H1126   1.081       .  S
C1124      C1605   1.384       .  A
C1124      C1159   1.492       .  S
C1125      C1604   1.384   1_545  A
C1125      H1127   1.082       .  S
N1128      N1129   1.328       .  A
N1128      C1132   1.347       .  A
N1129      C1130   1.344       .  A
C1130      C1131   1.383       .  A
C1130      H1133   1.082       .  S
C1131      C1132   1.387       .  A
C1131      C1412   1.485       .  S
C1132      H1134   1.082       .  S
N1135      N1136   1.314       .  A
N1135      C1139   1.352       .  A
N1135     Cu1143   2.073       .  S
N1136      C1137   1.335       .  A
N1136     Cu1142   2.056       .  S
C1137      C1138   1.391       .  A
C1137      H1140   1.081       .  S
C1138      C1139   1.398       .  A
C1139      H1141   1.078       .  S
Cu1142     N1145   2.046       .  S
Cu1143     N1153   2.084       .  S
Cu1144     N1146   2.092       .  S
Cu1144     N1152   2.102       .  S
N1145      N1146   1.316       .  A
N1145      C1149   1.331       .  A
N1146      C1147   1.358       .  A
C1147      C1148   1.398       .  A
C1147      H1150   1.081       .  S
C1148      C1149   1.384       .  A
C1148      C1160   1.492       .  S
C1149      H1151   1.082       .  S
N1152      N1153   1.328       .  A
N1152      C1156   1.347       .  A
N1153      C1154   1.344       .  A
C1154      C1155   1.382       .  A
C1154      H1157   1.082       .  S
C1155      C1156   1.385       .  A
C1155      C1405   1.482       .  S
C1156      H1158   1.082       .  S
C1159      C1160   1.359       .  D
N1161      N1162   1.313       .  A
N1161      C1165   1.351       .  A
N1161     Cu1169   2.062       .  S
N1162      C1163   1.334       .  A
N1162     Cu1168   2.058       .  S
C1163      C1164   1.392       .  A
C1163      H1166   1.081       .  S
C1164      C1165   1.397       .  A
C1164      C1359   1.503       .  S
C1165      H1167   1.077       .  S
Cu1168     N1171   2.046       .  S
Cu1169     N1179   2.072       .  S
Cu1170     N1172   2.099       .  S
Cu1170     N1178   2.109       .  S
N1171      N1172   1.317       .  A
N1171      C1175   1.330       .  A
N1172      C1653   1.360   1_545  A
C1173      N1652   1.360       .  A
C1173      C1174   1.400       .  A
C1173      H1176   1.080       .  S
C1174      C1655   1.384       .  A
C1174      C1209   1.496       .  S
C1175      C1654   1.384   1_545  A
C1175      H1177   1.082       .  S
N1178      N1179   1.328       .  A
N1178      C1182   1.351       .  A
N1179      C1180   1.340       .  A
C1180      C1181   1.378       .  A
C1180      H1183   1.082       .  S
C1181      C1182   1.387       .  A
C1181      C1392   1.478       .  S
C1182      H1184   1.082       .  S
N1185      N1186   1.313       .  A
N1185      C1189   1.352       .  A
N1185     Cu1193   2.068       .  S
N1186      C1187   1.334       .  A
N1186     Cu1192   2.057       .  S
C1187      C1188   1.391       .  A
C1187      H1190   1.081       .  S
C1188      C1189   1.397       .  A
C1188      C1360   1.502       .  S
C1189      H1191   1.079       .  S
Cu1192     N1195   2.045       .  S
Cu1193     N1203   2.080       .  S
Cu1194     N1196   2.100       .  S
Cu1194     N1202   2.110       .  S
N1195      N1196   1.317       .  A
N1195      C1199   1.331       .  A
N1196      C1197   1.359       .  A
C1197      C1198   1.399       .  A
C1197      H1200   1.081       .  S
C1198      C1199   1.383       .  A
C1198      C1210   1.493       .  S
C1199      H1201   1.082       .  S
N1202      N1203   1.329       .  A
N1202      C1206   1.349       .  A
N1203      C1204   1.344       .  A
C1204      C1205   1.377       .  A
C1204      H1207   1.082       .  S
C1205      C1206   1.384       .  A
C1205      C1382   1.472       .  S
C1206      H1208   1.082       .  S
C1209      C1314   1.487       .  S
C1210      C1338   1.490       .  S
N1211      N1212   1.313       .  A
N1211      C1215   1.351       .  A
N1211     Cu1219   2.064       .  S
N1212      C1213   1.336       .  A
N1212     Cu1218   2.060       .  S
C1213      C1214   1.392       .  A
C1213      H1216   1.081       .  S
C1214      C1215   1.396       .  A
Cu1218     N1221   2.047       .  S
Cu1219     N1229   2.075       .  S
Cu1220     N1222   2.105       .  S
Cu1220     N1228   2.114       .  S
N1221      N1222   1.317       .  A
N1221      C1225   1.331       .  A
N1222      C1223   1.359       .  A
C1223      C1224   1.399       .  A
C1223      H1226   1.081       .  S
C1224      C1225   1.383       .  A
C1224      C1259   1.494       .  S
C1225      H1227   1.082       .  S
N1228      N1229   1.327       .  A
N1228      C1232   1.350       .  A
N1229      C1230   1.340       .  A
C1230      C1231   1.384       .  A
C1230      H1233   1.080       .  S
C1231      C1232   1.393       .  A
C1231      C1385   1.494       .  S
C1232      H1234   1.081       .  S
N1235      N1236   1.313       .  A
N1235      C1239   1.352       .  A
N1235     Cu1243   2.070       .  S
N1236      C1237   1.335       .  A
N1236     Cu1242   2.057       .  S
C1237      C1238   1.392       .  A
C1237      H1240   1.081       .  S
C1238      C1239   1.399       .  A
C1239      H1241   1.077       .  S
Cu1242     N1245   2.046       .  S
Cu1243     N1253   2.080       .  S
Cu1244     N1246   2.094       .  S
Cu1244     N1252   2.104       .  S
N1245      N1246   1.317       .  A
N1245      C1249   1.329       .  A
N1246      C1247   1.359       .  A
C1247      C1248   1.398       .  A
C1247      H1250   1.080       .  S
C1248      C1249   1.384       .  A
C1248      C1260   1.494       .  S
C1249      H1251   1.082       .  S
N1252      N1253   1.329       .  A
N1252      C1256   1.350       .  A
N1253      C1254   1.341       .  A
C1254      C1255   1.377       .  A
C1254      H1257   1.082       .  S
C1255      C1256   1.384       .  A
C1255      C1395   1.472       .  S
C1256      H1258   1.082       .  S
C1259      C1260   1.360       .  D
N1261      N1262   1.322       .  A
N1261      C1265   1.347       .  A
N1261     Cu1269   2.075       .  S
N1262      C1263   1.341       .  A
N1262     Cu1268   2.056       .  S
C1263      C1264   1.376       .  A
C1263      H1266   1.082       .  S
C1264      C1265   1.386       .  A
Cu1268     N1271   2.052       .  S
Cu1269     N1279   2.076       .  S
Cu1270     N1272   2.073       .  S
Cu1270     N1278   2.075       .  S
N1271      N1272   1.320       .  A
N1271      C1275   1.340       .  A
N1272      C1273   1.348       .  A
C1273      C1274   1.386       .  A
C1273      H1276   1.082       .  S
C1274      C1275   1.378       .  A
C1274      C1309   1.485       .  S
C1275      H1277   1.082       .  S
N1278      N1279   1.324       .  A
N1278      C1282   1.345       .  A
N1279      C1280   1.345       .  A
C1280      C1281   1.382       .  A
C1280      H1283   1.082       .  S
C1281      C1282   1.382       .  A
C1281      C1375   1.473       .  S
C1282      H1284   1.082       .  S
N1285      N1286   1.321       .  A
N1285      C1289   1.346       .  A
N1285     Cu1293   2.074       .  S
N1286      C1287   1.342       .  A
N1286     Cu1292   2.057       .  S
C1287      C1288   1.377       .  A
C1287      H1290   1.082       .  S
C1288      C1289   1.386       .  A
C1288      C1490   1.487       .  S
C1289      H1291   1.082       .  S
Cu1292     N1295   2.052       .  S
Cu1293     N1303   2.075   1_565  S
Cu1294     N1296   2.072   1_545  S
Cu1294     N1302   2.074       .  S
N1295      N1296   1.321       .  A
N1295      C1299   1.339       .  A
N1296      C1297   1.347       .  A
C1297      C1298   1.385       .  A
C1297      H1300   1.082   1_565  S
C1298      C1299   1.378       .  A
C1298      C1790   1.483       .  S
C1299      H1301   1.082       .  S
N1302      N1303   1.323       .  A
N1302      C1306   1.344       .  A
N1303      C1304   1.344       .  A
C1304      C1305   1.385       .  A
C1304      H1307   1.082       .  S
C1305      C1306   1.384       .  A
C1305      C1365   1.480       .  S
C1306      H1308   1.082       .  S
C1309      C1310   1.363       .  D
C1310      C1444   1.502       .  S
C1310      C1778   1.483       .  S
N1311      N1792   1.322       .  A
N1311      C1315   1.347       .  A
N1311     Cu1799   2.074       .  S
N1312      N1791   1.322       .  A
N1312      C1793   1.341   1_655  A
N1312     Cu1318   2.057   1_655  S
C1313      N1792   1.341   1_455  A
C1313      C1314   1.377   1_455  A
C1313      H1796   1.082       .  S
C1314      C1315   1.386       .  A
C1315      H1317   1.082       .  S
H1316      C1793   1.082       .  S
Cu1318     N1321   2.053       .  S
Cu1319     N1791   2.074       .  S
Cu1319     N1329   2.075       .  S
Cu1320     N1322   2.072       .  S
Cu1320     N1328   2.074       .  S
N1321      N1322   1.321   1_455  A
N1321      C1325   1.340       .  A
N1322      C1323   1.347       .  A
C1323      C1324   1.386       .  A
C1323      H1326   1.082       .  S
C1324      C1325   1.378   1_655  A
C1324      C1359   1.484       .  S
C1325      H1327   1.082       .  S
N1328      N1329   1.323       .  A
N1328      C1332   1.344       .  A
N1329      C1330   1.345       .  A
C1330      C1331   1.383       .  A
C1330      H1333   1.082       .  S
C1331      C1332   1.383       .  A
C1331      C1362   1.476   1_554  S
C1332      H1334   1.082       .  S
N1335      N1336   1.321       .  A
N1335      C1339   1.346       .  A
N1335     Cu1343   2.076       .  S
N1336      C1337   1.343       .  A
N1336     Cu1342   2.057       .  S
C1337      C1338   1.378       .  A
C1337      H1340   1.082       .  S
C1338      C1339   1.387       .  A
C1339      H1341   1.082       .  S
Cu1342     N1345   2.052       .  S
Cu1343     N1353   2.077       .  S
Cu1344     N1346   2.072       .  S
Cu1344     N1352   2.073       .  S
N1345      N1346   1.321       .  A
N1345      C1349   1.339       .  A
N1346      C1347   1.347       .  A
C1347      C1348   1.384       .  A
C1347      H1350   1.082       .  S
C1348      C1349   1.378       .  A
C1348      C1360   1.482       .  S
C1349      H1351   1.082       .  S
N1352      N1353   1.322       .  A
N1352      C1356   1.344       .  A
N1353      C1354   1.345       .  A
C1354      C1355   1.387       .  A
C1354      H1357   1.082       .  S
C1355      C1356   1.386       .  A
C1355      C1372   1.484   1_554  S
C1356      H1358   1.081       .  S
C1361      C1362   1.404       .  A
C1361      C1366   1.399       .  A
C1361      F1368   1.358   1_556  S
C1362      C1363   1.406       .  A
C1363      C1364   1.398       .  A
C1363      F1370   1.358       .  S
C1364      C1365   1.406       .  A
C1364      F1369   1.358       .  S
C1365      C1366   1.408       .  A
C1366      F1367   1.357       .  S
C1371      C1372   1.411       .  A
C1371      C1376   1.399       .  A
C1371      F1378   1.357       .  S
C1372      C1373   1.408       .  A
C1373      C1374   1.398       .  A
C1373      F1380   1.357   1_556  S
C1374      C1375   1.404       .  A
C1374      F1379   1.358       .  S
C1375      C1376   1.402       .  A
C1376      F1377   1.358       .  S
C1381      C1382   1.398       .  A
C1381      C1386   1.396       .  A
C1381      F1388   1.358       .  S
C1382      C1383   1.403       .  A
C1383      C1384   1.404       .  A
C1383      F1390   1.358       .  S
C1384      C1385   1.413       .  A
C1384      F1389   1.357       .  S
C1385      C1386   1.414       .  A
C1386      F1387   1.356       .  S
C1391      C1392   1.406       .  A
C1391      C1396   1.393       .  A
C1391      F1398   1.358       .  S
C1392      C1393   1.408       .  A
C1393      C1394   1.405       .  A
C1393      F1400   1.358       .  S
C1394      C1395   1.406       .  A
C1394      F1399   1.358       .  S
C1395      C1396   1.401       .  A
C1396      F1397   1.358       .  S
C1401      C1402   1.408       .  A
C1401      C1406   1.400       .  A
C1401      F1408   1.357       .  S
C1402      C1403   1.408       .  A
C1403      C1404   1.399       .  A
C1403      F1410   1.358       .  S
C1404      C1405   1.406       .  A
C1404      F1409   1.357       .  S
C1405      C1406   1.408       .  A
C1406      F1407   1.358       .  S
C1411      C1412   1.407       .  A
C1411      C1416   1.399       .  A
C1411      F1418   1.357       .  S
C1412      C1413   1.409       .  A
C1413      C1414   1.400       .  A
C1413      F1420   1.358       .  S
C1414      C1415   1.407       .  A
C1414      F1419   1.357       .  S
C1415      C1416   1.408       .  A
C1416      F1417   1.358       .  S
C1421      C1422   1.403       .  A
C1421      C1426   1.399       .  A
C1421      F1428   1.358       .  S
C1422      C1423   1.404       .  A
C1423      C1424   1.399       .  A
C1423      F1430   1.358       .  S
C1424      C1425   1.412       .  A
C1424      F1429   1.357       .  S
C1425      C1426   1.411       .  A
C1426      F1427   1.356       .  S
C1431      C1432   1.404       .  A
C1431      C1436   1.403       .  A
C1431      F1438   1.358       .  S
C1432      C1433   1.404       .  A
C1433      C1434   1.394       .  A
C1433      F1440   1.358       .  S
C1434      C1435   1.406       .  A
C1434      F1439   1.358   1_545  S
C1435      C1436   1.408       .  A
C1436      F1437   1.358       .  S
N1441      N1442   1.314       .  A
N1441      C1445   1.351       .  A
N1441     Cu1449   2.067       .  S
N1442      C1443   1.335       .  A
N1442     Cu1448   2.057       .  S
C1443      C1444   1.391       .  A
C1443      H1446   1.081       .  S
C1444      C1445   1.396       .  A
C1445      H1447   1.078       .  S
Cu1448     N1451   2.045       .  S
Cu1449     N1459   2.078       .  S
Cu1450     N1452   2.093       .  S
Cu1450     N1458   2.104       .  S
N1451      N1452   1.316       .  A
N1451      C1455   1.331       .  A
N1452      C1453   1.358       .  A
C1453      C1454   1.398       .  A
C1453      H1456   1.081       .  S
C1454      C1455   1.383       .  A
C1455      H1457   1.082       .  S
N1458      N1459   1.329       .  A
N1458      C1462   1.348       .  A
N1459      C1460   1.342       .  A
C1460      C1461   1.380       .  A
C1460      H1463   1.082       .  S
C1461      C1462   1.385       .  A
C1461      C1915   1.477       .  S
C1462      H1464   1.082       .  S
N1465      N1466   1.314       .  A
N1465      C1469   1.352       .  A
N1465     Cu1473   2.074       .  S
N1466      C1467   1.335       .  A
N1466     Cu1472   2.057       .  S
C1467      C1468   1.391       .  A
C1467      H1470   1.081       .  S
C1468      C1469   1.398       .  A
C1468      C1789   1.505       .  S
C1469      H1471   1.077       .  S
Cu1472     N1475   2.046       .  S
Cu1473     N1483   2.083       .  S
Cu1474     N1476   2.090       .  S
Cu1474     N1482   2.101       .  S
N1475      N1476   1.316       .  A
N1475      C1479   1.331       .  A
N1476      C1477   1.357       .  A
C1477      C1478   1.398       .  A
C1477      H1480   1.081       .  S
C1478      C1479   1.384       .  A
C1478      C1489   1.493       .  S
C1479      H1481   1.082       .  S
N1482      N1483   1.327       .  A
N1482      C1486   1.347       .  A
N1483      C1484   1.343       .  A
C1484      C1485   1.386       .  A
C1484      H1487   1.081       .  S
C1485      C1486   1.389       .  A
C1485      C1905   1.490       .  S
C1486      H1488   1.081       .  S
C1489      C1744   1.486       .  S
N1491      N1492   1.321       .  A
N1491      C1495   1.347       .  A
N1491     Cu1499   2.074       .  S
N1492      C1493   1.341       .  A
N1492     Cu1498   2.057       .  S
C1493      C1494   1.377       .  A
C1493      H1496   1.082       .  S
C1494      C1495   1.386       .  A
C1494      C1640   1.486       .  S
C1495      H1497   1.082       .  S
Cu1498     N1501   2.053       .  S
Cu1499     N1509   2.075       .  S
Cu1500     N1502   2.076       .  S
Cu1500     N1508   2.078       .  S
N1501      N1502   1.321       .  A
N1501      C1505   1.340       .  A
N1502      C1503   1.348       .  A
C1503      C1504   1.386       .  A
C1503      H1506   1.082       .  S
C1504      C1505   1.378       .  A
C1504      C1539   1.485       .  S
C1505      H1507   1.082       .  S
N1508      N1509   1.323       .  A
N1508      C1512   1.346       .  A
N1509      C1510   1.343       .  A
C1510      C1511   1.382       .  A
C1510      H1513   1.082       .  S
C1511      C1512   1.385       .  A
C1511      C1902   1.477       .  S
C1512      H1514   1.082       .  S
N1515      C1519   1.345   1_545  A
N1516     Cu1522   2.058       .  S
C1517      C1518   1.379   1_545  A
C1518      C1519   1.385       .  A
C1518      C1639   1.486       .  S
C1519      H1521   1.082       .  S
Cu1522     N1525   2.053       .  S
Cu1523     N1533   2.066       .  S
Cu1524     N1526   2.083       .  S
Cu1524     N1532   2.083       .  S
N1525      N1526   1.322       .  A
N1525      C1529   1.339       .  A
N1526      C1527   1.349       .  A
C1527      C1528   1.386       .  A
C1527      H1530   1.082       .  S
C1528      C1529   1.377       .  A
C1528      C1540   1.485       .  S
C1529      H1531   1.082       .  S
N1532      N1533   1.323       .  A
N1532      C1536   1.349       .  A
N1533      C1534   1.341       .  A
C1534      C1535   1.380       .  A
C1534      H1537   1.082       .  S
C1535      C1536   1.385       .  A
C1535      C1912   1.473       .  S
C1536      H1538   1.082       .  S
C1539      C1618   1.506       .  S
C1539      C1540   1.363       .  D
C1540      C1594   1.503       .  S
N1541      N1542   1.321       .  A
N1541      C1545   1.346       .  A
N1541     Cu1549   2.068       .  S
N1542      C1543   1.342       .  A
N1542     Cu1548   2.058       .  S
C1543      C1544   1.378       .  A
C1543      H1546   1.082       .  S
C1544      C1545   1.385       .  A
C1544      C1740   1.488       .  S
C1545      H1547   1.082       .  S
Cu1548     N1551   2.054       .  S
Cu1549     N1559   2.069       .  S
Cu1550     N1552   2.083       .  S
Cu1550     N1558   2.085       .  S
N1551      N1552   1.322       .  A
N1551      C1555   1.339       .  A
N1552      C1553   1.349       .  A
C1553      C1554   1.387       .  A
C1553      H1556   1.082       .  S
C1554      C1555   1.377       .  A
C1554      C1590   1.486       .  S
C1555      H1557   1.082       .  S
N1558      N1559   1.323       .  A
N1558      C1562   1.347       .  A
N1559      C1560   1.342       .  A
C1560      C1561   1.384       .  A
C1560      H1563   1.082       .  S
C1561      C1562   1.389       .  A
C1561      C1895   1.484       .  S
C1562      H1564   1.081       .  S
N1565      N1566   1.321       .  A
N1565      C1569   1.345       .  A
N1565     Cu1573   2.071       .  S
N1566      C1567   1.343       .  A
N1566     Cu1572   2.058       .  S
C1567      C1568   1.378       .  A
C1567      H1570   1.082       .  S
C1568      C1569   1.386       .  A
C1568      C1739   1.489       .  S
C1569      H1571   1.082       .  S
Cu1572     N1575   2.052       .  S
Cu1573     N1583   2.072       .  S
Cu1574     N1576   2.079       .  S
Cu1574     N1582   2.081       .  S
N1575      N1576   1.322       .  A
N1575      C1579   1.339       .  A
N1576      C1577   1.348       .  A
C1577      C1578   1.386       .  A
C1577      H1580   1.082       .  S
C1578      C1579   1.377       .  A
C1578      C1589   1.483       .  S
C1579      H1581   1.082       .  S
N1582      N1583   1.322       .  A
N1582      C1586   1.346       .  A
N1583      C1584   1.343       .  A
C1584      C1585   1.385       .  A
C1584      H1587   1.082       .  S
C1585      C1586   1.388       .  A
C1585      C1882   1.483       .  S
C1586      H1588   1.082       .  S
C1589      C1694   1.503       .  S
C1590      C1718   1.506       .  S
N1591      N1592   1.314       .  A
N1591      C1595   1.352       .  A
N1591     Cu1599   2.072       .  S
N1592      C1593   1.335       .  A
N1592     Cu1598   2.056       .  S
C1593      C1594   1.390       .  A
C1593      H1596   1.081       .  S
C1594      C1595   1.397       .  A
C1595      H1597   1.079       .  S
Cu1598     N1601   2.046       .  S
Cu1599     N1609   2.083       .  S
Cu1600     N1602   2.094       .  S
Cu1600     N1608   2.104       .  S
N1601      N1602   1.316       .  A
N1601      C1605   1.331       .  A
C1603      C1604   1.398       .  A
C1603      H1606   1.081       .  S
C1604      C1639   1.492       .  S
C1605      H1607   1.082       .  S
N1608      N1609   1.328       .  A
N1608      C1612   1.347       .  A
N1609      C1610   1.344       .  A
C1610      C1611   1.383       .  A
C1610      H1613   1.082       .  S
C1611      C1612   1.387       .  A
C1611      C1892   1.485       .  S
C1612      H1614   1.082       .  S
N1615      N1616   1.314       .  A
N1615      C1619   1.352       .  A
N1615     Cu1623   2.073       .  S
N1616      C1617   1.335       .  A
N1616     Cu1622   2.056       .  S
C1617      C1618   1.391       .  A
C1617      H1620   1.081       .  S
C1618      C1619   1.398       .  A
C1619      H1621   1.078       .  S
Cu1622     N1625   2.046       .  S
Cu1623     N1633   2.084       .  S
Cu1624     N1626   2.092       .  S
Cu1624     N1632   2.102       .  S
N1625      N1626   1.316       .  A
N1625      C1629   1.331       .  A
N1626      C1627   1.358       .  A
C1627      C1628   1.397       .  A
C1627      H1630   1.081       .  S
C1628      C1629   1.384       .  A
C1628      C1640   1.492       .  S
C1629      H1631   1.082       .  S
N1632      N1633   1.328       .  A
N1632      C1636   1.347       .  A
N1633      C1634   1.344       .  A
C1634      C1635   1.382       .  A
C1634      H1637   1.082       .  S
C1635      C1636   1.385       .  A
C1635      C1885   1.482       .  S
C1636      H1638   1.082       .  S
C1639      C1640   1.359       .  D
N1641      N1642   1.313       .  A
N1641      C1645   1.351       .  A
N1641     Cu1649   2.062       .  S
N1642      C1643   1.334       .  A
N1642     Cu1648   2.058       .  S
C1643      C1644   1.392       .  A
C1643      H1646   1.081       .  S
C1644      C1645   1.397       .  A
C1644      C1839   1.503       .  S
C1645      H1647   1.077       .  S
Cu1648     N1651   2.046       .  S
Cu1649     N1659   2.072       .  S
Cu1650     N1652   2.099       .  S
Cu1650     N1658   2.109       .  S
N1651      N1652   1.317       .  A
N1651      C1655   1.330       .  A
C1653      C1654   1.400       .  A
C1653      H1656   1.080       .  S
C1654      C1689   1.496       .  S
C1655      H1657   1.082       .  S
N1658      N1659   1.328       .  A
N1658      C1662   1.351       .  A
N1659      C1660   1.340       .  A
C1660      C1661   1.378       .  A
C1660      H1663   1.082       .  S
C1661      C1662   1.387       .  A
C1661      C1872   1.478       .  S
C1662      H1664   1.082       .  S
N1665      N1666   1.313       .  A
N1665      C1669   1.352       .  A
N1665     Cu1673   2.068       .  S
N1666      C1667   1.334       .  A
N1666     Cu1672   2.057       .  S
C1667      C1668   1.391       .  A
C1667      H1670   1.081       .  S
C1668      C1669   1.397       .  A
C1668      C1840   1.502       .  S
C1669      H1671   1.079       .  S
Cu1672     N1675   2.045       .  S
Cu1673     N1683   2.080       .  S
Cu1674     N1676   2.100       .  S
Cu1674     N1682   2.110       .  S
N1675      N1676   1.317       .  A
N1675      C1679   1.331       .  A
N1676      C1677   1.359       .  A
C1677      C1678   1.399       .  A
C1677      H1680   1.081       .  S
C1678      C1679   1.383       .  A
C1678      C1690   1.493       .  S
C1679      H1681   1.082       .  S
N1682      N1683   1.329       .  A
N1682      C1686   1.349       .  A
N1683      C1684   1.344       .  A
C1684      C1685   1.377       .  A
C1684      H1687   1.082       .  S
C1685      C1686   1.384       .  A
C1685      C1862   1.472       .  S
C1686      H1688   1.082       .  S
C1689      C1794   1.487       .  S
C1690      C1818   1.490       .  S
N1691      N1692   1.313       .  A
N1691      C1695   1.351       .  A
N1691     Cu1699   2.064       .  S
N1692      C1693   1.336       .  A
N1692     Cu1698   2.060       .  S
C1693      C1694   1.392       .  A
C1693      H1696   1.081       .  S
C1694      C1695   1.396       .  A
Cu1698     N1701   2.047       .  S
Cu1699     N1709   2.075       .  S
Cu1700     N1702   2.105       .  S
Cu1700     N1708   2.114       .  S
N1701      N1702   1.317       .  A
N1701      C1705   1.331       .  A
N1702      C1703   1.359       .  A
C1703      C1704   1.399       .  A
C1703      H1706   1.081       .  S
C1704      C1705   1.383       .  A
C1704      C1739   1.494       .  S
C1705      H1707   1.082       .  S
N1708      N1709   1.327       .  A
N1708      C1712   1.350       .  A
N1709      C1710   1.340       .  A
C1710      C1711   1.384       .  A
C1710      H1713   1.080       .  S
C1711      C1712   1.393       .  A
C1711      C1865   1.494       .  S
C1712      H1714   1.081       .  S
N1715      N1716   1.313       .  A
N1715      C1719   1.352       .  A
N1715     Cu1723   2.070       .  S
N1716      C1717   1.335       .  A
N1716     Cu1722   2.057       .  S
C1717      C1718   1.392       .  A
C1717      H1720   1.081       .  S
C1718      C1719   1.399       .  A
C1719      H1721   1.077       .  S
Cu1722     N1725   2.046       .  S
Cu1723     N1733   2.080       .  S
Cu1724     N1726   2.094       .  S
Cu1724     N1732   2.104       .  S
N1725      N1726   1.317       .  A
N1725      C1729   1.329       .  A
N1726      C1727   1.359       .  A
C1727      C1728   1.398       .  A
C1727      H1730   1.080       .  S
C1728      C1729   1.384       .  A
C1728      C1740   1.494       .  S
C1729      H1731   1.082       .  S
N1732      N1733   1.329       .  A
N1732      C1736   1.350       .  A
N1733      C1734   1.341       .  A
C1734      C1735   1.377       .  A
C1734      H1737   1.082       .  S
C1735      C1736   1.384       .  A
C1735      C1875   1.472       .  S
C1736      H1738   1.082       .  S
C1739      C1740   1.360       .  D
N1741      N1742   1.322       .  A
N1741      C1745   1.347       .  A
N1741     Cu1749   2.075       .  S
N1742      C1743   1.341       .  A
N1742     Cu1748   2.056       .  S
C1743      C1744   1.376       .  A
C1743      H1746   1.082       .  S
C1744      C1745   1.386       .  A
Cu1748     N1751   2.052       .  S
Cu1749     N1759   2.076       .  S
Cu1750     N1752   2.073       .  S
Cu1750     N1758   2.075       .  S
N1751      N1752   1.320       .  A
N1751      C1755   1.340       .  A
N1752      C1753   1.348       .  A
C1753      C1754   1.386       .  A
C1753      H1756   1.082       .  S
C1754      C1755   1.378       .  A
C1754      C1789   1.485       .  S
C1755      H1757   1.082       .  S
N1758      N1759   1.324       .  A
N1758      C1762   1.345       .  A
N1759      C1760   1.345       .  A
C1760      C1761   1.382       .  A
C1760      H1763   1.082       .  S
C1761      C1762   1.382       .  A
C1761      C1855   1.473       .  S
C1762      H1764   1.082       .  S
N1765      N1766   1.321       .  A
N1765      C1769   1.346       .  A
N1765     Cu1773   2.074       .  S
N1766      C1767   1.342       .  A
N1766     Cu1772   2.057       .  S
C1767      C1768   1.377       .  A
C1767      H1770   1.082       .  S
C1768      C1769   1.386       .  A
C1769      H1771   1.082       .  S
Cu1772     N1775   2.052       .  S
Cu1773     N1783   2.075       .  S
Cu1774     N1776   2.072       .  S
Cu1774     N1782   2.074       .  S
N1775      N1776   1.321       .  A
N1775      C1779   1.339       .  A
N1776      C1777   1.347       .  A
C1777      C1778   1.385       .  A
C1777      H1780   1.082       .  S
C1778      C1779   1.378       .  A
C1779      H1781   1.082       .  S
N1782      N1783   1.323       .  A
N1782      C1786   1.344       .  A
N1783      C1784   1.344       .  A
C1784      C1785   1.385       .  A
C1784      H1787   1.082       .  S
C1785      C1786   1.384       .  A
C1785      C1845   1.480       .  S
C1786      H1788   1.082       .  S
C1789      C1790   1.363       .  D
N1791      C1795   1.347   1_545  A
N1792     Cu1798   2.057   1_655  S
C1793      C1794   1.377   1_445  A
C1794      C1795   1.386       .  A
C1795      H1797   1.082       .  S
Cu1798     N1801   2.053       .  S
Cu1799     N1809   2.075       .  S
Cu1800     N1802   2.072       .  S
Cu1800     N1808   2.074       .  S
N1801      N1802   1.321   1_455  A
N1801      C1805   1.340       .  A
N1802      C1803   1.347       .  A
C1803      C1804   1.386       .  A
C1803      H1806   1.082       .  S
C1804      C1805   1.378   1_655  A
C1804      C1839   1.484       .  S
C1805      H1807   1.082       .  S
N1808      N1809   1.323       .  A
N1808      C1812   1.344       .  A
N1809      C1810   1.345       .  A
C1810      C1811   1.383       .  A
C1810      H1813   1.082       .  S
C1811      C1812   1.383       .  A
C1811      C1842   1.476   1_554  S
C1812      H1814   1.082       .  S
N1815      N1816   1.321       .  A
N1815      C1819   1.346       .  A
N1815     Cu1823   2.076       .  S
N1816      C1817   1.343       .  A
N1816     Cu1822   2.057       .  S
C1817      C1818   1.378       .  A
C1817      H1820   1.082       .  S
C1818      C1819   1.387       .  A
C1819      H1821   1.082       .  S
Cu1822     N1825   2.052       .  S
Cu1823     N1833   2.077       .  S
Cu1824     N1826   2.072       .  S
Cu1824     N1832   2.073       .  S
N1825      N1826   1.321       .  A
N1825      C1829   1.339       .  A
N1826      C1827   1.347       .  A
C1827      C1828   1.384       .  A
C1827      H1830   1.082       .  S
C1828      C1829   1.378       .  A
C1828      C1840   1.482       .  S
C1829      H1831   1.082       .  S
N1832      N1833   1.322       .  A
N1832      C1836   1.344       .  A
N1833      C1834   1.345       .  A
C1834      C1835   1.387       .  A
C1834      H1837   1.082       .  S
C1835      C1836   1.386       .  A
C1835      C1852   1.484   1_554  S
C1836      H1838   1.081       .  S
C1841      C1842   1.404       .  A
C1841      C1846   1.399       .  A
C1841      F1848   1.358   1_556  S
C1842      C1843   1.406       .  A
C1843      C1844   1.398       .  A
C1843      F1850   1.358       .  S
C1844      C1845   1.406       .  A
C1844      F1849   1.358       .  S
C1845      C1846   1.408       .  A
C1846      F1847   1.357       .  S
C1851      C1852   1.411       .  A
C1851      C1856   1.399       .  A
C1851      F1858   1.357       .  S
C1852      C1853   1.408       .  A
C1853      C1854   1.398       .  A
C1853      F1860   1.357   1_556  S
C1854      C1855   1.404       .  A
C1854      F1859   1.358       .  S
C1855      C1856   1.402       .  A
C1856      F1857   1.358       .  S
C1861      C1862   1.398       .  A
C1861      C1866   1.396       .  A
C1861      F1868   1.358       .  S
C1862      C1863   1.403       .  A
C1863      C1864   1.404       .  A
C1863      F1870   1.358       .  S
C1864      C1865   1.413       .  A
C1864      F1869   1.357       .  S
C1865      C1866   1.414       .  A
C1866      F1867   1.356       .  S
C1871      C1872   1.406       .  A
C1871      C1876   1.393       .  A
C1871      F1878   1.358       .  S
C1872      C1873   1.408       .  A
C1873      C1874   1.405       .  A
C1873      F1880   1.358       .  S
C1874      C1875   1.406       .  A
C1874      F1879   1.358       .  S
C1875      C1876   1.401       .  A
C1876      F1877   1.358       .  S
C1881      C1882   1.408       .  A
C1881      C1886   1.400       .  A
C1881      F1888   1.357       .  S
C1882      C1883   1.408       .  A
C1883      C1884   1.399       .  A
C1883      F1890   1.358       .  S
C1884      C1885   1.406       .  A
C1884      F1889   1.357       .  S
C1885      C1886   1.408       .  A
C1886      F1887   1.358       .  S
C1891      C1892   1.407       .  A
C1891      C1896   1.399       .  A
C1891      F1898   1.357       .  S
C1892      C1893   1.409       .  A
C1893      C1894   1.400       .  A
C1893      F1900   1.358       .  S
C1894      C1895   1.407       .  A
C1894      F1899   1.357       .  S
C1895      C1896   1.408       .  A
C1896      F1897   1.358       .  S
C1901      C1902   1.403       .  A
C1901      C1906   1.399       .  A
C1901      F1908   1.358       .  S
C1902      C1903   1.404       .  A
C1903      C1904   1.399       .  A
C1903      F1910   1.358       .  S
C1904      C1905   1.412       .  A
C1904      F1909   1.357       .  S
C1905      C1906   1.411       .  A
C1906      F1907   1.356       .  S
C1911      C1912   1.404       .  A
C1911      C1916   1.403       .  A
C1911      F1918   1.358       .  S
C1912      C1913   1.404       .  A
C1913      C1914   1.394       .  A
C1913      F1920   1.358       .  S
C1914      C1915   1.406       .  A
C1914      F1919   1.358       .  S
C1915      C1916   1.408       .  A
C1916      F1917   1.358       .  S
