geometry optimzed in LAMMPS
_audit_creation_date              2020-11-30 
_audit_creation_method            'lammps2cif' 
_symmetry_space_group_name_H-M    'P1' 
_symmetry_Int_Tables_number       1 
_symmetry_cell_setting            triclinic 
loop_ 
_symmetry_equiv_pos_as_xyz 
  x,y,z 
_cell_length_a                    33.19085449 
_cell_length_b                    33.12729740932062 
_cell_length_c                    33.188433488290464 
_cell_angle_alpha                 90.0455305701267 
_cell_angle_beta                  90.05357139710651 
_cell_angle_gamma                 89.93567158790414 
loop_ 
_atom_site_label 
_atom_site_type_symbol 
_atom_site_fract_x 
_atom_site_fract_y 
_atom_site_fract_z 
_atom_site_charge 
C1          C  0.98353744  0.24050137  0.29600473     0.03100
C2          C  0.02556010  0.23744409  0.29405657    -0.13000
C3          C  0.04881145  0.26440693  0.27100017     0.00600
C4          C  0.02866452  0.28724200  0.24161744    -0.11500
C5          C  0.98687038  0.29290207  0.24278389     0.03100
C6          C  0.96377149  0.26932680  0.27059454    -0.11000
H7          H  0.04017757  0.21682841  0.31471068     0.08700
H8          H  0.04570821  0.30547551  0.22077277     0.06200
H9          H  0.93159605  0.27398932  0.27309385     0.06100
O10         O  0.05506136  0.40285377  0.35950086    -0.86500
O11         O  0.02554142  0.41102499  0.58464411    -0.86700
O12         O  0.10487039  0.36184660  0.47517689    -0.88300
O13         O  0.96979338  0.35119938  0.46499579    -0.87100
O14         O  0.91885828  0.39799862  0.46087075    -0.86700
O15         O  0.14940671  0.41457613  0.48089190    -0.88000
O16         O  0.03348796  0.35905291  0.53938797    -0.86500
O17         O  0.05422334  0.35565790  0.40995326    -0.86100
Zr18       Zr  0.03423938  0.38885684  0.47195326     2.84300
O19         O  0.98671852  0.42870395  0.50682888    -1.08100
O20         O  0.07411745  0.43293363  0.43467323    -1.08800
C21         C  0.06169045  0.36705966  0.37357537     1.06600
C22         C  0.03075240  0.37376624  0.57539620     1.06600
C23         C  0.14118266  0.37669179  0.47824497     1.09500
C24         C  0.93193358  0.36114443  0.46192674     1.07300
H25         H  0.08454349  0.41856432  0.53321702     0.32900
O26         O  0.06802889  0.43374695  0.51465975    -1.29000
H27         H  0.98070803  0.40779351  0.40834801     0.32600
O28         O  0.99439134  0.42637699  0.42609975    -1.30700
O29         O  0.01422655  0.53990801  0.57928893    -0.86500
O30         O  0.03762862  0.53455302  0.35271423    -0.88000
O31         O  0.13699757  0.47598424  0.54541308    -0.86600
O32         O  0.90694948  0.46666483  0.52518751    -0.86600
O33         O  0.92008316  0.46131899  0.39291932    -0.86300
O34         O  0.15037466  0.47108526  0.41658288    -0.86100
O35         O  0.08877206  0.58840556  0.46811888    -0.86500
O36         O  0.95743998  0.58226827  0.46262862    -0.86000
O37         O  0.14028236  0.54315713  0.47757746    -0.87000
O38         O  0.90996477  0.53206161  0.45990314    -0.86200
O39         O  0.08333499  0.47715643  0.58910332    -0.86600
O40         O  0.10711929  0.46459149  0.36279847    -0.86300
O41         O  0.97241062  0.46053171  0.34764486    -0.86000
O42         O  0.95229333  0.46906888  0.57740255    -0.86400
O43         O  0.02105570  0.58748227  0.52948616    -0.86700
O44         O  0.02794678  0.58210013  0.40230209    -0.88000
Zr45       Zr  0.02100263  0.47354499  0.54939443     2.83100
Zr46       Zr  0.03628587  0.46849064  0.38697116     2.83500
Zr47       Zr  0.10993099  0.47609823  0.47713591     2.84100
Zr48       Zr  0.94679074  0.46641041  0.46175550     2.83400
Zr49       Zr  0.02475896  0.55118570  0.46665430     2.84200
O50         O  0.98952348  0.50780461  0.42322006    -1.08600
O51         O  0.06406948  0.51582191  0.51306288    -1.08100
C52         C  0.01606392  0.57651116  0.56630072     1.06600
C53         C  0.03304094  0.57120602  0.36563783     1.09200
C54         C  0.12148752  0.47650952  0.58102660     1.06800
C55         C  0.91580626  0.46735067  0.56336297     1.07100
C56         C  0.93414564  0.45906089  0.35655086     1.06700
C57         C  0.14290341  0.46589398  0.37883852     1.06300
C58         C  0.12645619  0.57925997  0.47270967     1.06700
C59         C  0.92038884  0.56994756  0.46100093     1.06200
H60         H  0.08891267  0.52956174  0.41451997     0.32900
O61         O  0.07134865  0.51250458  0.43024732    -1.29700
H62         H  0.96299433  0.52682874  0.51937290     0.32900
O63         O  0.98178921  0.51038840  0.50441611    -1.31000
C64         C  0.98898388  0.70959438  0.76087106     0.03100
C65         C  0.99031593  0.75135710  0.75251800    -0.13000
C66         C  0.99586371  0.76451403  0.71244888     0.00600
C67         C  0.99995855  0.73619355  0.68148208    -0.11500
C68         C  0.99874304  0.69513049  0.68971403     0.03100
C69         C  0.99411593  0.68194001  0.72929288    -0.11000
H70         H  0.98612282  0.77314647  0.77649546     0.08700
H71         H  0.00285854  0.74622047  0.65049297     0.06200
H72         H  0.99410546  0.64981759  0.73554333     0.06100
C73         C  0.99016132  0.22954766  0.75348153     0.03100
C74         C  0.97433629  0.25153824  0.78678373    -0.13000
C75         C  0.98085180  0.29409919  0.78926889     0.00600
C76         C  0.99917954  0.31360761  0.75631007    -0.11500
C77         C  0.01389198  0.29123549  0.72369046     0.03100
C78         C  0.01314402  0.24965462  0.72496667    -0.11000
H79         H  0.95682557  0.23622410  0.80961657     0.08700
H80         H  0.00134733  0.34622253  0.75564766     0.06200
H81         H  0.02519252  0.23302432  0.69940990     0.06100
C82         C  0.99271816  0.74979106  0.23285934     0.03100
C83         C  0.01829764  0.72241463  0.25187454    -0.13000
C84         C  0.02585851  0.72499568  0.29278293     0.00600
C85         C  0.01372059  0.75925486  0.31424324    -0.11500
C86         C  0.99058099  0.78972633  0.29568594     0.03100
C87         C  0.97877092  0.78418085  0.25462787    -0.11000
H88         H  0.02679769  0.69489019  0.23614815     0.08700
H89         H  0.01965527  0.76054074  0.34634502     0.06200
H90         H  0.95816268  0.80522054  0.24052850     0.06100
O91         O  0.96374366  0.08664064  0.41320065    -0.86500
O92         O  0.98287120  0.07237417  0.64349290    -0.86700
O93         O  0.91176117  0.12946634  0.54617648    -0.88300
O94         O  0.04436596  0.12660847  0.52664985    -0.87100
O95         O  0.08901523  0.07435463  0.51662002    -0.86700
O96         O  0.86165609  0.08174972  0.54758675    -0.88000
O97         O  0.97879712  0.12518638  0.59874355    -0.86500
O98         O  0.96713135  0.13446792  0.46306241    -0.86100
Zr99       Zr  0.97572390  0.09748227  0.52862854     2.84300
O100        O  0.01832475  0.05281345  0.56357585    -1.08100
O101        O  0.93052095  0.05856357  0.48965601    -1.08800
C102        C  0.96368036  0.12382863  0.42527077     1.06600
C103        C  0.98090643  0.11016970  0.63501498     1.06600
C104        C  0.87533423  0.11776814  0.55357862     1.09500
C105        C  0.08015972  0.11176215  0.52106371     1.07300
H106        H  0.92398857  0.06876327  0.58980246     0.32900
O107        O  0.93813216  0.05351398  0.56955051    -1.29000
H108        H  0.02726443  0.07378055  0.46514984     0.32600
O109        O  0.01130871  0.05674955  0.48254904    -1.30700
O110        O  0.98022117  0.94448259  0.63633611    -0.86500
O111        O  0.96526708  0.95419292  0.40568288    -0.88000
O112        O  0.86561610  0.01591469  0.60265205    -0.86600
O113        O  0.09202467  0.01460478  0.58087236    -0.86600
O114        O  0.08216707  0.01359795  0.44971706    -0.86300
O115        O  0.85332018  0.02255303  0.46631214    -0.86100
O116        O  0.90804338  0.90232838  0.53277571    -0.86500
O117        O  0.03433259  0.89799722  0.51538979    -0.86000
O118        O  0.85842239  0.95041526  0.53826648    -0.87000
O119        O  0.08453386  0.94553306  0.51621686    -0.86200
O120        O  0.91920159  0.00991619  0.64616471    -0.86600
O121        O  0.89906675  0.02313862  0.41446423    -0.86300
O122        O  0.03050298  0.01780847  0.40387376    -0.86000
O123        O  0.04837537  0.01059542  0.63424141    -0.86400
O124        O  0.97673514  0.89839731  0.58466915    -0.86700
O125        O  0.96570519  0.90345650  0.45263751    -0.88000
Zr126      Zr  0.98040507  0.01046692  0.60546000     2.83100
Zr127      Zr  0.96675660  0.01884275  0.44278233     2.83500
Zr128      Zr  0.89117603  0.01654713  0.53158711     2.84100
Zr129      Zr  0.05349809  0.01205170  0.51781189     2.83400
Zr130      Zr  0.97127101  0.93406493  0.52026777     2.84200
O131        O  0.00947030  0.97480418  0.47774587    -1.08600
O132        O  0.93501463  0.97332097  0.56622088    -1.08100
C133        C  0.97945605  0.90832653  0.62227879     1.06600
C134        C  0.96510762  0.91633139  0.41568999     1.09200
C135        C  0.88115644  0.01307060  0.63868056     1.06800
C136        C  0.08405341  0.01377281  0.61905072     1.07100
C137        C  0.06847016  0.01575723  0.41321058     1.06700
C138        C  0.86259671  0.02436419  0.42808645     1.06300
C139        C  0.87157795  0.91358527  0.53889858     1.06700
C140        C  0.07157851  0.90880970  0.51524614     1.06200
H141        H  0.90900610  0.96111946  0.46891924     0.32900
O142        O  0.92749556  0.97703806  0.48485339    -1.29700
H143        H  0.03430055  0.95260123  0.57523317     0.32900
O144        O  0.01657587  0.97030175  0.56037445    -1.31000
C145        C  0.25891218  0.25386190  0.49315750     0.03100
C146        C  0.29470183  0.23457189  0.47913731    -0.13000
C147        C  0.30029481  0.19223154  0.48533991     0.00600
C148        C  0.26851446  0.17032152  0.50327427    -0.11500
C149        C  0.23305623  0.18960652  0.51569253     0.03100
C150        C  0.23024318  0.23120837  0.51375456    -0.11000
H151        H  0.31682911  0.25167955  0.46239490     0.08700
H152        H  0.27034311  0.13778401  0.50596094     0.06200
H153        H  0.20204617  0.24544396  0.52249188     0.06100
C154        C  0.80276703  0.24490758  0.47983353     0.03100
C155        C  0.79514972  0.24868381  0.52118320    -0.13000
C156        C  0.77383558  0.21868219  0.54217640     0.00600
C157        C  0.74985698  0.19233671  0.51921729    -0.11500
C158        C  0.75625354  0.18716873  0.47784972     0.03100
C159        C  0.78366218  0.21333791  0.45786285    -0.11000
H160        H  0.81144456  0.27160903  0.53779336     0.08700
H161        H  0.72987489  0.17135564  0.53407236     0.06200
H162        H  0.79064810  0.20871869  0.42634526     0.06100
C163        C  0.73566688  0.73448894  0.48479782     0.03100
C164        C  0.76056504  0.70254285  0.47063601    -0.13000
C165        C  0.80145476  0.69985133  0.48382411     0.00600
C166        C  0.81732523  0.73260947  0.50625479    -0.11500
C167        C  0.79216053  0.76437092  0.51898911     0.03100
C168        C  0.75100847  0.76128774  0.51312566    -0.11000
H169        H  0.74884354  0.68102782  0.44905812     0.08700
H170        H  0.84932196  0.73411720  0.51253846     0.06200
H171        H  0.73175628  0.78526336  0.52450890     0.06100
C172        C  0.26785311  0.77993089  0.48307385     0.03100
C173        C  0.25993516  0.73802927  0.47843204    -0.13000
C174        C  0.22046714  0.72308945  0.48518552     0.00600
C175        C  0.19011119  0.74964814  0.49746004    -0.11500
C176        C  0.19743249  0.79084855  0.50136977     0.03100
C177        C  0.23618310  0.80562388  0.49442113    -0.11000
H178        H  0.28347140  0.71780925  0.46826439     0.08700
H179        H  0.15994480  0.73816475  0.50257497     0.06200
H180        H  0.24154972  0.83780482  0.49663672     0.06100
C181        C  0.74717565  0.00986007  0.29737609     0.03100
C182        C  0.75223913  0.96849972  0.29041820    -0.13000
C183        C  0.72351846  0.94613477  0.26871663     0.00600
C184        C  0.69699543  0.96778834  0.24369432    -0.11500
C185        C  0.69125515  0.00947580  0.24813337     0.03100
C186        C  0.71600875  0.03079691  0.27622359    -0.11000
H187        H  0.77537245  0.95294673  0.30741334     0.08700
H188        H  0.67687313  0.95180374  0.22368023     0.06200
H189        H  0.71059647  0.06247787  0.28211587     0.06100
O190        O  0.47378962  0.09053488  0.46206697    -0.86500
O191        O  0.44796110  0.86111980  0.47667107    -0.86700
O192        O  0.41672649  0.97905310  0.40504581    -0.88300
O193        O  0.41392110  0.98461209  0.53436319    -0.87100
O194        O  0.46213658  0.98091862  0.58374251    -0.86700
O195        O  0.46250396  0.96503592  0.35493387    -0.88000
O196        O  0.40603124  0.91577859  0.47060386    -0.86500
O197        O  0.42137995  0.04553982  0.46482101    -0.86100
Zr198      Zr  0.44778601  0.97691458  0.46978302     2.84300
O199        O  0.48108172  0.93413088  0.51453162    -1.08100
O200        O  0.49294310  0.00950878  0.42636756    -1.08800
C201        C  0.43549270  0.08186022  0.46260559     1.06600
C202        C  0.41266517  0.87732706  0.47332746     1.06600
C203        C  0.42669269  0.97296012  0.36822015     1.09500
C204        C  0.42544318  0.98466114  0.57154701     1.07300
H205        H  0.46408379  0.91259162  0.41568960     0.32900
O206        O  0.48257231  0.92860388  0.43151133    -1.29000
H207        H  0.47689433  0.03589099  0.52304156     0.32600
O208        O  0.49193721  0.01638220  0.50752657    -1.30700
O209        O  0.57698013  0.84441917  0.47444132    -0.86500
O210        O  0.60683416  0.07398257  0.45968715    -0.88000
O211        O  0.52630305  0.88998358  0.36285678    -0.86600
O212        O  0.52286246  0.90961317  0.58855703    -0.86600
O213        O  0.53454869  0.04121293  0.58055044    -0.86300
O214        O  0.53885801  0.02546817  0.35015661    -0.86100
O215        O  0.64112741  0.93760111  0.40971604    -0.86500
O216        O  0.64091486  0.95652581  0.53935505    -0.86000
O217        O  0.59268167  0.93874824  0.36045455    -0.87000
O218        O  0.58969132  0.96786696  0.58458245    -0.86200
O219        O  0.51724980  0.84665934  0.41604592    -0.86600
O220        O  0.54127555  0.07699248  0.39631924    -0.86300
O221        O  0.53949224  0.08731937  0.52908750    -0.86000
O222        O  0.51450193  0.85734049  0.54390948    -0.86400
O223        O  0.63188765  0.88627062  0.46955970    -0.86700
O224        O  0.65066788  0.02034073  0.46338743    -0.88000
Zr225      Zr  0.51714594  0.88677671  0.47683040     2.83100
Zr226      Zr  0.53710620  0.04953249  0.46458804     2.83500
Zr227      Zr  0.52846904  0.96114332  0.38833571     2.84100
Zr228      Zr  0.52682851  0.97340074  0.55086626     2.83400
Zr229      Zr  0.60940929  0.95797929  0.47219652     2.84200
O230        O  0.57283460  0.00674709  0.50869100    -1.08600
O231        O  0.56212247  0.92117159  0.43527562    -1.08100
C232        C  0.61510476  0.85076588  0.47043789     1.06600
C233        C  0.64280022  0.05868705  0.45922629     1.09200
C234        C  0.52235992  0.85398598  0.37832888     1.06800
C235        C  0.51856119  0.87171112  0.57979866     1.07100
C236        C  0.53776058  0.07781771  0.56705032     1.06700
C237        C  0.54199819  0.06358467  0.35969246     1.06300
C238        C  0.62848799  0.93068749  0.37362793     1.06700
C239        C  0.62663891  0.96175640  0.57527920     1.06200
H240        H  0.59234036  0.01304764  0.40930938     0.32900
O241        O  0.57349776  0.00025462  0.42732809    -1.29700
H242        H  0.57801459  0.90714571  0.53245457     0.32900
O243        O  0.56336636  0.92490688  0.51457493    -1.31000
C244        C  0.28288954  0.01364290  0.76321891     0.03100
C245        C  0.31273341  0.00990877  0.73360290    -0.13000
C246        C  0.30257345  0.00702859  0.69279216     0.00600
C247        C  0.26191628  0.00796659  0.68182977    -0.11500
C248        C  0.23147334  0.01425443  0.71045360     0.03100
C249        C  0.24196157  0.01650075  0.75169816    -0.11000
H250        H  0.34412966  0.00904627  0.74263008     0.08700
H251        H  0.25358801  0.00371421  0.65055692     0.06200
H252        H  0.21884968  0.02054721  0.77435095     0.06100
C253        C  0.75785789  0.99607167  0.75600291     0.03100
C254        C  0.73635070  0.97262676  0.72868195    -0.13000
C255        C  0.69483915  0.97021546  0.73066002     0.00600
C256        C  0.67449971  0.98490949  0.76450939    -0.11500
C257        C  0.69551331  0.00460302  0.79582876     0.03100
C258        C  0.73763874  0.01188866  0.79050408    -0.11000
H259        H  0.75124209  0.96222884  0.70140842     0.08700
H260        H  0.64195323  0.98244143  0.76544300     0.06200
H261        H  0.75389463  0.03043603  0.81187724     0.06100
C262        C  0.24113394  0.98971767  0.23793550     0.03100
C263        C  0.27115857  0.97076450  0.26008262    -0.13000
C264        C  0.27057713  0.97137546  0.30161658     0.00600
C265        C  0.23578449  0.98391419  0.32201701    -0.11500
C266        C  0.20188310  0.99822436  0.30050136     0.03100
C267        C  0.20546133  0.00292295  0.25786158    -0.11000
H268        H  0.29893050  0.96198750  0.24504602     0.08700
H269        H  0.23570369  0.98359576  0.35466146     0.06200
H270        H  0.18175412  0.01764621  0.24093254     0.06100
O271        O  0.57656888  0.02698739  0.09555781    -0.86500
O272        O  0.34741842  0.00730132  0.07523698    -0.86700
O273        O  0.44454444  0.08248326  0.13014699    -0.88300
O274        O  0.46203289  0.94831624  0.13331562    -0.87100
O275        O  0.46951104  0.90170657  0.08240074    -0.86700
O276        O  0.44671256  0.13155263  0.08136054    -0.88000
O277        O  0.39133009  0.01142069  0.12869272    -0.86500
O278        O  0.52450034  0.02441428  0.14099475    -0.86100
Zr279      Zr  0.46097055  0.01620351  0.10173124     2.84300
O280        O  0.42666601  0.97306558  0.05732895    -1.08100
O281        O  0.50243839  0.05968451  0.06346740    -1.08800
C282        C  0.56256329  0.02780366  0.13202479     1.06600
C283        C  0.35540032  0.00838604  0.11330645     1.06600
C284        C  0.43946986  0.11912494  0.11753012     1.09500
C285        C  0.46597476  0.91181984  0.11947462     1.07300
H286        H  0.40221935  0.06908989  0.06991206     0.32900
O287        O  0.42254870  0.05404858  0.05560729    -1.29000
H288        H  0.52385577  0.96226654  0.08215342     0.32600
O289        O  0.50740676  0.97803004  0.06400743    -1.30700
O290        O  0.35788231  0.01171299  0.94579413    -0.86500
O291        O  0.58877184  0.02257454  0.96349590    -0.88000
O292        O  0.39413583  0.12643969  0.01332953    -0.86600
O293        O  0.40783231  0.89890378  0.01903591    -0.86600
O294        O  0.54087979  0.90582174  0.02491183    -0.86300
O295        O  0.52933656  0.13588284  0.02487611    -0.86100
O296        O  0.46750474  0.07659648  0.90396375    -0.86500
O297        O  0.48114448  0.95017734  0.90644937    -0.86000
O298        O  0.46307799  0.12840311  0.94984674    -0.87000
O299        O  0.47781503  0.90076447  0.95464999    -0.86200
O300        O  0.34903656  0.07385294  0.00968753    -0.86600
O301        O  0.57891632  0.08796600  0.02879662    -0.86300
O302        O  0.58706954  0.95708642  0.02936998    -0.86000
O303        O  0.35604170  0.94424574  0.01150046    -0.86400
O304        O  0.41092008  0.01244262  0.90137101    -0.86700
O305        O  0.54287518  0.02025946  0.91182685    -0.88000
Zr306      Zr  0.38673393  0.01095698  0.01315009     2.83100
Zr307      Zr  0.54937777  0.02096134  0.02672428     2.83500
Zr308      Zr  0.46357165  0.09865010  0.01815316     2.84100
Zr309      Zr  0.47265748  0.93509155  0.01938293     2.83400
Zr310      Zr  0.47438316  0.01477268  0.93951234     2.84200
O311        O  0.51508017  0.97730119  0.98277557    -1.08600
O312        O  0.42858825  0.05396484  0.97594753    -1.08100
C313        C  0.37288468  0.01221052  0.90999864     1.06600
C314        C  0.57942322  0.02259274  0.92550240     1.09200
C315        C  0.35787508  0.11173316  0.01074079     1.06800
C316        C  0.37000464  0.90810564  0.01542117     1.07100
C317        C  0.57754549  0.91919817  0.02786148     1.06700
C318        C  0.56712683  0.12505767  0.02778762     1.06300
C319        C  0.46383310  0.11388406  0.91350895     1.06700
C320        C  0.48105344  0.91304233  0.91788405     1.06200
H321        H  0.52667728  0.07668455  0.96595313     0.32900
O322        O  0.50977375  0.05915611  0.98188181    -1.29700
H323        H  0.41738676  0.95407141  0.95751716     0.32900
O324        O  0.43191209  0.97185363  0.97544564    -1.31000
C325        C  0.52517325  0.18859138  0.23895742     0.03100
C326        C  0.54693229  0.21137466  0.20988934    -0.13000
C327        C  0.52646330  0.24106981  0.18658857     0.00600
C328        C  0.48501578  0.24651842  0.19209693    -0.11500
C329        C  0.46229849  0.22005504  0.21597412     0.03100
C330        C  0.48360326  0.19477192  0.24268425    -0.11000
H331        H  0.57876775  0.20595419  0.20533783     0.08700
H332        H  0.47003877  0.26867848  0.17347717     0.06200
H333        H  0.46747862  0.17615757  0.26403801     0.06100
C334        C  0.50623370  0.73537337  0.25857244     0.03100
C335        C  0.48209180  0.76350857  0.23881737    -0.13000
C336        C  0.47379488  0.75970655  0.19821565     0.00600
C337        C  0.48289923  0.72367698  0.17826018    -0.11500
C338        C  0.50358227  0.69223739  0.19805342     0.03100
C339        C  0.51678400  0.69879640  0.23851356    -0.11000
H340        H  0.47557828  0.79214702  0.25346873     0.08700
H341        H  0.47648428  0.72138400  0.14630149     0.06200
H342        H  0.53620769  0.67701868  0.25317451     0.06100
C343        C  0.51730664  0.77604613  0.72302552     0.03100
C344        C  0.50526831  0.80500904  0.75138873    -0.13000
C345        C  0.50238453  0.79541123  0.79216841     0.00600
C346        C  0.50947163  0.75593684  0.80447969    -0.11500
C347        C  0.52156705  0.72605222  0.77718566     0.03100
C348        C  0.52511666  0.73596283  0.73577727    -0.11000
H349        H  0.49902508  0.83560206  0.74160574     0.08700
H350        H  0.50657867  0.74857335  0.83616068     0.06200
H351        H  0.53488726  0.71340980  0.71425758     0.06100
C352        C  0.51612321  0.19273562  0.69807879     0.03100
C353        C  0.49658032  0.17269000  0.73013880    -0.13000
C354        C  0.48178250  0.19458882  0.76320640     0.00600
C355        C  0.48363724  0.23630100  0.76294018    -0.11500
C356        C  0.50818793  0.25635069  0.73566396     0.03100
C357        C  0.52388318  0.23488545  0.70205590    -0.11000
H358        H  0.49419032  0.14007008  0.73002470     0.08700
H359        H  0.47198876  0.25264949  0.78886098     0.06200
H360        H  0.54269537  0.25021333  0.68028848     0.06100
O361        O  0.96742883  0.41025441  0.09004966    -0.86500
O362        O  0.98043814  0.64254633  0.07096448    -0.86700
O363        O  0.04102902  0.52718507  0.12983625    -0.88300
O364        O  0.91140620  0.54548157  0.12895818    -0.87100
O365        O  0.86282112  0.54610888  0.07984219    -0.86700
O366        O  0.08810096  0.52101083  0.07929824    -0.88000
O367        O  0.97418868  0.59829319  0.12387584    -0.86500
O368        O  0.97020800  0.46221138  0.13587172    -0.86100
Zr369      Zr  0.97484134  0.52736530  0.09782272     2.84300
O370        O  0.93777744  0.56551357  0.05187676    -1.08100
O371        O  0.01216907  0.48062049  0.05977256    -1.08800
C372        C  0.96813984  0.42393802  0.12660912     1.06600
C373        C  0.97650282  0.63456829  0.10877518     1.06600
C374        C  0.07738250  0.52444077  0.11627480     1.09500
C375        C  0.87544917  0.55279191  0.11604298     1.07300
H376        H  0.03588608  0.58003005  0.06908073     0.32900
O377        O  0.01794752  0.56272614  0.05401384    -1.29000
H378        H  0.91280941  0.47204879  0.07844656     0.32600
O379        O  0.93061576  0.48597764  0.06015601    -1.30700
O380        O  0.97942384  0.63163066  0.94212637    -0.86500
O381        O  0.96645962  0.40181298  0.95726467    -0.88000
O382        O  0.09232474  0.57881364  0.00494198    -0.86600
O383        O  0.86472621  0.59626877  0.01548115    -0.86600
O384        O  0.85480640  0.46069752  0.02333162    -0.86300
O385        O  0.08318431  0.44731115  0.02031885    -0.86100
O386        O  0.03948146  0.50953391  0.90279621    -0.86500
O387        O  0.91184231  0.51594796  0.90312252    -0.86000
O388        O  0.08782030  0.50547122  0.95215295    -0.87000
O389        O  0.86032998  0.52446609  0.94860620    -0.86200
O390        O  0.04715452  0.63141116  0.00439850    -0.86600
O391        O  0.03226289  0.40050707  0.02187505    -0.86300
O392        O  0.90157529  0.40969636  0.02509072    -0.86000
O393        O  0.91746362  0.64093936  0.01147747    -0.86400
O394        O  0.97482361  0.57877952  0.89763260    -0.86700
O395        O  0.96885690  0.44800009  0.90578721    -0.88000
Zr396      Zr  0.97981237  0.60249405  0.00958379     2.83100
Zr397      Zr  0.96879446  0.43909001  0.02202962     2.83500
Zr398      Zr  0.05469234  0.51582301  0.01577526     2.84100
Zr399      Zr  0.89199304  0.52611810  0.01568442     2.83400
Zr400      Zr  0.97475393  0.51544276  0.93596723     2.84200
O401        O  0.93089632  0.48003099  0.97854534    -1.08600
O402        O  0.01832912  0.55704955  0.97185307    -1.08100
C403        C  0.97693754  0.61685832  0.90621853     1.06600
C404        C  0.96683189  0.41137587  0.91930273     1.09200
C405        C  0.08311483  0.61673623  0.00231123     1.06800
C406        C  0.87962150  0.63264351  0.01432232     1.07100
C407        C  0.86481405  0.42260522  0.02553038     1.06700
C408        C  0.07000935  0.41046467  0.02145510     1.06300
C409        C  0.07599121  0.50508774  0.91526333     1.06700
C410        C  0.87472096  0.51957746  0.91266470     1.06200
H411        H  0.02740468  0.45520900  0.96295055     0.32900
O412        O  0.01195286  0.47417440  0.97872248    -1.29700
H413        H  0.91978058  0.57829125  0.95463097     0.32900
O414        O  0.93558489  0.56159886  0.97250959    -1.31000
C415        C  0.80411444  0.47568773  0.24230064     0.03100
C416        C  0.80111724  0.51768226  0.24559164    -0.13000
C417        C  0.77615703  0.54037549  0.21990910     0.00600
C418        C  0.74629137  0.51940993  0.19840916    -0.11500
C419        C  0.74827689  0.47752500  0.19325313     0.03100
C420        C  0.77791128  0.45518775  0.21505560    -0.11000
H421        H  0.82224519  0.53270895  0.26529365     0.08700
H422        H  0.72447886  0.53595906  0.18062534     0.06200
H423        H  0.78098103  0.42299543  0.21037332     0.06100
C424        C  0.25396132  0.46899319  0.25400687     0.03100
C425        C  0.22394569  0.49075833  0.23450554    -0.13000
C426        C  0.22593781  0.49843421  0.19373496     0.00600
C427        C  0.26046723  0.48833231  0.17197121    -0.11500
C428        C  0.29286225  0.46809281  0.19074322     0.03100
C429        C  0.28922019  0.45770494  0.23237124    -0.11000
H430        H  0.19628387  0.49810506  0.25047459     0.08700
H431        H  0.26137179  0.49497119  0.14003348     0.06200
H432        H  0.31268619  0.44049907  0.24716520     0.06100
C433        C  0.21513789  0.47482166  0.72619277     0.03100
C434        C  0.25598440  0.46788376  0.73667192    -0.13000
C435        C  0.26744197  0.46741572  0.77786577     0.00600
C436        C  0.23820205  0.47457702  0.80745702    -0.11500
C437        C  0.19817629  0.48138648  0.79693268     0.03100
C438        C  0.18674215  0.48068176  0.75666756    -0.11000
H439        H  0.27833451  0.46330355  0.71337004     0.08700
H440        H  0.24680251  0.47568633  0.83898132     0.06200
H441        H  0.15525771  0.48492695  0.74889340     0.06100
C442        C  0.79817321  0.48569091  0.69269634     0.03100
C443        C  0.81964340  0.50464885  0.72401864    -0.13000
C444        C  0.80040932  0.51619658  0.75964483     0.00600
C445        C  0.75918408  0.51198128  0.76330900    -0.11500
C446        C  0.73713307  0.49011386  0.73518481     0.03100
C447        C  0.75639073  0.47699597  0.69897569    -0.11000
H448        H  0.85202205  0.50831189  0.72178357     0.08700
H449        H  0.74507885  0.52011759  0.79174628     0.06200
H450        H  0.73981314  0.45941469  0.67704371     0.06100
C451        C  0.20124803  0.29738342  0.99872542     0.03100
C452        C  0.23295253  0.31996839  0.98173420    -0.13000
C453        C  0.26805237  0.30087714  0.96863016     0.00600
C454        C  0.27139448  0.25934923  0.97056187    -0.11500
C455        C  0.24314668  0.23649956  0.99126459     0.03100
C456        C  0.20713955  0.25521135  0.00502620    -0.11000
H457        H  0.23110384  0.35260545  0.98017274     0.08700
H458        H  0.29972540  0.24543001  0.96167027     0.06200
H459        H  0.18506243  0.23780965  0.02152332     0.06100
O460        O  0.53599772  0.39542919  0.07553220    -0.86500
O461        O  0.51890844  0.41611709  0.84557268    -0.86700
O462        O  0.45863093  0.35475709  0.95957082    -0.88300
O463        O  0.58810696  0.36037832  0.93837086    -0.87100
O464        O  0.63641636  0.40974258  0.93927992    -0.86700
O465        O  0.41152254  0.40492792  0.96883851    -0.88000
O466        O  0.52487597  0.36245966  0.88901145    -0.86500
O467        O  0.53551317  0.35017634  0.02308562    -0.86100
Zr468      Zr  0.52425058  0.38863188  0.95937105     2.84300
O469        O  0.55975810  0.43567424  0.92104265    -1.08100
O470        O  0.48551369  0.42529358  0.00615098    -1.08800
C471        C  0.53883189  0.35916240  0.06120858     1.06600
C472        C  0.52269904  0.37813075  0.85310797     1.06600
C473        C  0.42227799  0.36814820  0.96393067     1.09500
C474        C  0.62383065  0.37377489  0.93108827     1.07300
H475        H  0.46282151  0.41616864  0.90786858     0.32900
O476        O  0.48014305  0.43213417  0.92499981    -1.29000
H477        H  0.58592291  0.40969455  0.01400377     0.32600
O478        O  0.56725735  0.42748298  0.00047626    -1.30700
O479        O  0.51584541  0.54560831  0.85671805    -0.86500
O480        O  0.52576661  0.52713730  0.08719797    -0.88000
O481        O  0.40450245  0.46853515  0.90788703    -0.86600
O482        O  0.63099902  0.47422984  0.88976013    -0.86600
O483        O  0.64211585  0.46528139  0.02551367    -0.86300
O484        O  0.41180317  0.46121412  0.03863950    -0.86100
O485        O  0.45631335  0.58376479  0.97453699    -0.86500
O486        O  0.58405707  0.58591563  0.97042800    -0.86000
O487        O  0.40811778  0.53419019  0.97701415    -0.87000
O488        O  0.63534863  0.54043364  0.95957751    -0.86200
O489        O  0.44890393  0.47670592  0.85553739    -0.86600
O490        O  0.46294783  0.45763820  0.08506824    -0.86300
O491        O  0.59543968  0.46273377  0.07649261    -0.86000
O492        O  0.57774395  0.47971324  0.84574977    -0.86400
O493        O  0.52118555  0.58939943  0.90999925    -0.86700
O494        O  0.52327629  0.57911879  0.04156908    -0.88000
Zr495      Zr  0.51629559  0.47776145  0.88514372     2.83100
Zr496      Zr  0.52773472  0.46358161  0.04798484     2.83500
Zr497      Zr  0.44222795  0.46943000  0.97158435     2.84100
Zr498      Zr  0.60490518  0.47268688  0.96038442     2.83400
Zr499      Zr  0.52120835  0.55088511  0.97302164     2.84200
O500        O  0.56561600  0.50824635  0.00776860    -1.08600
O501        O  0.47760733  0.51473860  0.93105648    -1.08100
C502        C  0.51946899  0.58132649  0.87183980     1.06600
C503        C  0.52436874  0.56522953  0.07808903     1.09200
C504        C  0.41315544  0.47155630  0.86995017     1.06800
C505        C  0.61564909  0.47690361  0.85367552     1.07100
C506        C  0.63215467  0.46275516  0.06347353     1.06700
C507        C  0.42499342  0.45779277  0.07527454     1.06300
C508        C  0.41962065  0.57139874  0.97649314     1.06700
C509        C  0.62104819  0.57654134  0.96414905     1.06200
H510        H  0.46764252  0.52215235  0.03232362     0.32900
O511        O  0.48397728  0.50708124  0.01353760    -1.29700
H512        H  0.57532531  0.53336197  0.90943150     0.32900
O513        O  0.56001363  0.51516997  0.92615336    -1.31000
C514        C  0.69506895  0.79169535  0.00249860     0.03100
C515        C  0.73551491  0.78417945  0.01500720    -0.13000
C516        C  0.75687979  0.75055107  0.99887497     0.00600
C517        C  0.73832717  0.72633248  0.96991232    -0.11500
C518        C  0.69733587  0.72961544  0.96279729     0.03100
C519        C  0.67650016  0.76358932  0.97658790    -0.11000
H520        H  0.74924744  0.80281464  0.03802677     0.08700
H521        H  0.75368684  0.69918618  0.95971096     0.06200
H522        H  0.64460223  0.76600746  0.97004296     0.06100
C523        C  0.22680792  0.71154793  0.98861845     0.03100
C524        C  0.23760970  0.75167607  0.99861930    -0.13000
C525        C  0.27875248  0.76272838  0.00029948     0.00600
C526        C  0.30835198  0.73375710  0.99167335    -0.11500
C527        C  0.29781401  0.69410865  0.98258986     0.03100
C528        C  0.25726971  0.68330753  0.98065160    -0.11000
H529        H  0.21449844  0.77368712  0.00559779     0.08700
H530        H  0.33996536  0.74181094  0.99350480     0.06200
H531        H  0.24943655  0.65213659  0.97441436     0.06100
C532        C  0.69591794  0.24165188  0.00448547     0.03100
C533        C  0.72171404  0.26826786  0.02617816    -0.13000
C534        C  0.74965222  0.29286838  0.00486755     0.00600
C535        C  0.75069574  0.29072547  0.96278100    -0.11500
C536        C  0.72147444  0.26914280  0.94087804     0.03100
C537        C  0.69746333  0.24155244  0.96233145    -0.11000
H538        H  0.71974020  0.27016680  0.05867396     0.08700
H539        H  0.77157169  0.31035256  0.94724118     0.06200
H540        H  0.67646109  0.22228542  0.94656832     0.06100
C541        C  0.70777215  0.28467045  0.90026879    -0.05500
C542        C  0.71936486  0.32466503  0.89178827    -0.32900
C543        C  0.69237358  0.35559707  0.90216337     0.36400
C544        C  0.65206882  0.34528031  0.91152121    -0.05800
C545        C  0.63882849  0.30621499  0.90084908    -0.32800
C546        C  0.66723552  0.27682578  0.89041785     0.36300
H547        H  0.75080292  0.33216587  0.88749351     0.16600
O548        O  0.70591408  0.39463677  0.90443130    -0.60300
H549        H  0.60727554  0.29802084  0.90199432     0.16600
O550        O  0.65478397  0.23882040  0.87990079    -0.60400
H551        H  0.65921373  0.23710891  0.85041413     0.43600
H552        H  0.72040183  0.39648571  0.93052084     0.43600
C553        C  0.38842557  0.60253829  0.97797328    -0.05500
C554        C  0.39043328  0.63533447  0.95131352    -0.32900
C555        C  0.36103601  0.66556473  0.95228104     0.36400
C556        C  0.32910595  0.66278046  0.97998143    -0.05800
C557        C  0.32754268  0.63024638  0.00695911    -0.32800
C558        C  0.35697388  0.60021376  0.00612666     0.36300
H559        H  0.41463103  0.63729281  0.92948600     0.16600
O560        O  0.36290067  0.69687161  0.92528885    -0.60300
H561        H  0.30374456  0.62854321  0.02923046     0.16600
O562        O  0.35606136  0.56996820  0.03433240    -0.60400
H563        H  0.33678841  0.54977067  0.02363179     0.43600
H564        H  0.38531642  0.71423878  0.93478014     0.43600
C565        C  0.64782885  0.61129130  0.96300081    -0.05500
C566        C  0.65766866  0.62907872  0.92585233    -0.32900
C567        C  0.67260206  0.66869023  0.92450160     0.36400
C568        C  0.67613958  0.69091619  0.96041748    -0.05800
C569        C  0.66646732  0.67277842  0.99728807    -0.32800
C570        C  0.65317307  0.63310455  0.99877106     0.36300
H571        H  0.65225943  0.61287855  0.89799117     0.16600
O572        O  0.68330480  0.68541537  0.88829787    -0.60300
H573        H  0.67027358  0.68929676  0.02525283     0.16600
O574        O  0.64351088  0.61630264  0.03524462    -0.60400
H575        H  0.66932800  0.60597902  0.04624378     0.43600
H576        H  0.65900395  0.70014682  0.87899584     0.43600
C577        C  0.30628148  0.32223218  0.96578889    -0.05500
C578        C  0.32767176  0.32728764  0.00186949    -0.32900
C579        C  0.36860145  0.33589152  0.00126133     0.36400
C580        C  0.38834216  0.34100013  0.96422327    -0.05800
C581        C  0.36711800  0.33578574  0.92803995    -0.32800
C582        C  0.32623435  0.32581144  0.92870054     0.36300
H583        H  0.31277900  0.32296582  0.03061295     0.16600
O584        O  0.38840251  0.34268994  0.03697512    -0.60300
H585        H  0.38167801  0.34175071  0.89943746     0.16600
O586        O  0.30576887  0.32039220  0.89320399    -0.60400
H587        H  0.31068750  0.29186211  0.88558564     0.43600
H588        H  0.40678882  0.31931373  0.04039146     0.43600
C589        C  0.64297310  0.47649556  0.81793147    -0.05500
C590        C  0.67067197  0.44495558  0.81239780    -0.32900
C591        C  0.69730814  0.44475421  0.77933457     0.36400
C592        C  0.69730088  0.47689097  0.75124624    -0.05800
C593        C  0.66713199  0.50658688  0.75508084    -0.32800
C594        C  0.64018157  0.50651513  0.78787253     0.36300
H595        H  0.67247918  0.42092856  0.83441931     0.16600
O596        O  0.72721146  0.41617866  0.77798350    -0.60300
H597        H  0.66746418  0.53250602  0.73518481     0.16600
O598        O  0.61400711  0.53826908  0.79246517    -0.60400
H599        H  0.59014545  0.53120522  0.77591782     0.43600
H600        H  0.71400779  0.39141700  0.76763399     0.43600
C601        C  0.37943900  0.46728479  0.84093111    -0.05500
C602        C  0.35243552  0.43510819  0.84558194    -0.32900
C603        C  0.31797865  0.43212637  0.82136240     0.36400
C604        C  0.30950464  0.46206220  0.79231067    -0.05800
C605        C  0.33798706  0.49266687  0.78565569    -0.32800
C606        C  0.37310645  0.49504948  0.80934329     0.36300
H607        H  0.35754097  0.41270014  0.86881698     0.16600
O608        O  0.29172267  0.40068697  0.82727812    -0.60300
H609        H  0.33166442  0.51632812  0.76402966     0.16600
O610        O  0.39919663  0.52656218  0.80363665    -0.60400
H611        H  0.41877887  0.51676740  0.78329758     0.43600
H612        H  0.27749375  0.40685180  0.85282491     0.43600
C613        C  0.32887655  0.45772582  0.16517024    -0.05500
C614        C  0.36739898  0.47231152  0.17514780    -0.32900
C615        C  0.39958021  0.47058816  0.14723795     0.36400
C616        C  0.39363277  0.45459530  0.10808042    -0.05800
C617        C  0.35572756  0.43761169  0.09927346    -0.32800
C618        C  0.32382502  0.43886479  0.12725134     0.36300
H619        H  0.37205080  0.48715964  0.20386817     0.16600
O620        O  0.43580991  0.48749059  0.15759240    -0.60300
H621        H  0.35039302  0.42397836  0.07006221     0.16600
O622        O  0.28753345  0.42162138  0.11725526    -0.60400
H623        H  0.27628150  0.43850438  0.09527571     0.43600
H624        H  0.44974964  0.46667247  0.17393801     0.43600
C625        C  0.72220409  0.46116684  0.16010001    -0.05500
C626        C  0.73384568  0.46805838  0.11980040    -0.32900
C627        C  0.70550174  0.46798796  0.08798004     0.36400
C628        C  0.66444264  0.45977954  0.09556619    -0.05800
C629        C  0.65337111  0.45100527  0.13576915    -0.32800
C630        C  0.68146385  0.45221321  0.16761383     0.36300
H631        H  0.76458324  0.47697798  0.11342592     0.16600
O632        O  0.71792557  0.47882018  0.05015959    -0.60300
H633        H  0.62218338  0.44507340  0.14321075     0.16600
O634        O  0.66801635  0.44857636  0.20651251    -0.60400
H635        H  0.66145301  0.41958517  0.20990959     0.43600
H636        H  0.71457807  0.50855444  0.04897876     0.43600
C637        C  0.85157321  0.66806094  0.01664496    -0.05500
C638        C  0.81748342  0.66665686  0.04153152    -0.32900
C639        C  0.78901566  0.69818668  0.04166688     0.36400
C640        C  0.79395898  0.73205186  0.01623130    -0.05800
C641        C  0.82995639  0.73519611  0.99422783    -0.32800
C642        C  0.85872901  0.70389695  0.99457604     0.36300
H643        H  0.81208853  0.64037089  0.05990939     0.16600
O644        O  0.75422499  0.69380855  0.06358110    -0.60300
H645        H  0.83391831  0.76012524  0.97349856     0.16600
O646        O  0.89177789  0.70707239  0.97002827    -0.60400
H647        H  0.91281630  0.71994678  0.98692342     0.43600
H648        H  0.73911883  0.67164933  0.05031732     0.43600
C649        C  0.83262203  0.39019572  0.02808909    -0.05500
C650        C  0.84396917  0.34953252  0.03497391    -0.32900
C651        C  0.81607987  0.31757812  0.03218588     0.36400
C652        C  0.77535158  0.32530832  0.02319854    -0.05800
C653        C  0.76330719  0.36592149  0.01882645    -0.32800
C654        C  0.79135367  0.39796073  0.02089891     0.36300
H655        H  0.87521236  0.34195957  0.04064609     0.16600
O656        O  0.82981589  0.27858523  0.03448656    -0.60300
H657        H  0.73246586  0.37262370  0.01038483     0.16600
O658        O  0.77835022  0.43643410  0.01324101    -0.60400
H659        H  0.77921538  0.43925746  0.98350600     0.43600
H660        H  0.82172266  0.26901115  0.06159398     0.43600
C661        C  0.18470649  0.69620220  0.98932774    -0.05500
C662        C  0.17059441  0.67369389  0.95619129    -0.32900
C663        C  0.13690560  0.64842893  0.95975392     0.36400
C664        C  0.11637094  0.64578965  0.99668793    -0.05800
C665        C  0.12839345  0.67057078  0.02883431    -0.32800
C666        C  0.16233888  0.69571160  0.02538524     0.36300
H667        H  0.18728913  0.67384744  0.92813886     0.16600
O668        O  0.12445422  0.62616510  0.92715388    -0.60300
H669        H  0.11252167  0.66903329  0.05731125     0.16600
O670        O  0.17563273  0.71660074  0.05852328    -0.60400
H671        H  0.15528330  0.73805883  0.06312237     0.43600
H672        H  0.14378013  0.60339719  0.92514905     0.43600
C673        C  0.10103860  0.37750502  0.02157214    -0.05500
C674        C  0.09455063  0.34078297  0.00093120    -0.32900
C675        C  0.12595644  0.31230585  0.99608221     0.36400
C676        C  0.16456159  0.32016035  0.01212674    -0.05800
C677        C  0.16975681  0.35511268  0.03563223    -0.32800
C678        C  0.13879502  0.38361296  0.04011329     0.36300
H679        H  0.06576006  0.33508301  0.98670272     0.16600
O680        O  0.11947184  0.27866302  0.97287680    -0.60300
H681        H  0.19889941  0.36148779  0.04893150     0.16600
O682        O  0.14583617  0.41755844  0.06277093    -0.60400
H683        H  0.16355773  0.43482289  0.04601873     0.43600
H684        H  0.11332778  0.25680156  0.99230972     0.43600
C685        C  0.84856141  0.51717941  0.87779680    -0.05500
C686        C  0.85535064  0.48437277  0.85198842    -0.32900
C687        C  0.84312471  0.48572007  0.81210156     0.36400
C688        C  0.82254732  0.51986809  0.79761884    -0.05800
C689        C  0.81454647  0.55236418  0.82375229    -0.32800
C690        C  0.82826524  0.55148899  0.86361230     0.36300
H691        H  0.87229437  0.45839150  0.86240414     0.16600
O692        O  0.85078514  0.45313805  0.78767887    -0.60300
H693        H  0.79745828  0.57816414  0.81319608     0.16600
O694        O  0.82322871  0.58465645  0.88786522    -0.60400
H695        H  0.84659663  0.60234392  0.88200552     0.43600
H696        H  0.82672562  0.43558041  0.79008481     0.43600
C697        C  0.10690864  0.49878165  0.88506536    -0.05500
C698        C  0.11147995  0.52708678  0.85421863    -0.32900
C699        C  0.14204915  0.52239382  0.82589667     0.36400
C700        C  0.16775551  0.48859865  0.82803905    -0.05800
C701        C  0.16317448  0.46039570  0.85912019    -0.32800
C702        C  0.13269356  0.46520955  0.88753251     0.36300
H703        H  0.09183700  0.55320722  0.85260176     0.16600
O704        O  0.14672351  0.55093266  0.79633830    -0.60300
H705        H  0.18259659  0.43411840  0.86071788     0.16600
O706        O  0.12778902  0.43675711  0.91718114    -0.60400
H707        H  0.11412466  0.41368924  0.90388610     0.43600
H708        H  0.16252252  0.57292561  0.80904260     0.43600
C709        C  0.11042894  0.52166126  0.14438607    -0.05500
C710        C  0.12086625  0.48286149  0.15690089    -0.32900
C711        C  0.15928924  0.47514645  0.17134010     0.36400
C712        C  0.18761092  0.50666860  0.17385871    -0.05800
C713        C  0.17669493  0.54603300  0.16310210    -0.32800
C714        C  0.13807307  0.55360988  0.14801321     0.36300
H715        H  0.10004825  0.45795752  0.15289486     0.16600
O716        O  0.16899077  0.43665661  0.18317814    -0.60300
H717        H  0.19803010  0.57056087  0.16625758     0.16600
O718        O  0.12817733  0.59164631  0.13501236    -0.60400
H719        H  0.11539243  0.60491079  0.15856168     0.43600
H720        H  0.18527957  0.42530994  0.16082906     0.43600
C721        C  0.84666469  0.57056760  0.14513228    -0.05500
C722        C  0.85924449  0.57964131  0.18475190    -0.32900
C723        C  0.83058988  0.59071836  0.21359224     0.36400
C724        C  0.79009470  0.58115742  0.20506391    -0.05800
C725        C  0.77899505  0.58998464  0.16507958    -0.32800
C726        C  0.80635821  0.57995593  0.13452665     0.36300
H727        H  0.89054583  0.57719745  0.19365110     0.16600
O728        O  0.84275331  0.60028586  0.25194164    -0.60300
H729        H  0.74762842  0.59407911  0.15710838     0.16600
O730        O  0.79283396  0.57720277  0.09557891    -0.60400
H731        H  0.78158900  0.54959997  0.09302171     0.43600
H732        H  0.82876292  0.62589571  0.25860260     0.43600
C733        C  0.52299004  0.29561323  0.75150896    -0.05500
C734        C  0.49527997  0.32770792  0.75340589    -0.32900
C735        C  0.49568977  0.35518514  0.78575698     0.36400
C736        C  0.52407874  0.35099750  0.81719589    -0.05800
C737        C  0.55395164  0.32119236  0.81354721    -0.32800
C738        C  0.55383616  0.29401269  0.78091898     0.36300
H739        H  0.47027994  0.32858532  0.73239865     0.16600
O740        O  0.46535887  0.38319490  0.78870280    -0.60300
H741        H  0.57657331  0.31799071  0.83682781     0.16600
O742        O  0.58012800  0.26203735  0.78148469    -0.60400
H743        H  0.60382772  0.27121013  0.76583371     0.43600
H744        H  0.47392888  0.40598967  0.77138413     0.43600
C745        C  0.52957286  0.68536081  0.79444634    -0.05500
C746        C  0.50702723  0.65192318  0.78157902    -0.32900
C747        C  0.50421027  0.61716273  0.80578268     0.36400
C748        C  0.52389486  0.61574569  0.84356413    -0.05800
C749        C  0.54885849  0.64798148  0.85471906    -0.32800
C750        C  0.55242679  0.68204292  0.83030210     0.36300
H751        H  0.48919674  0.65386872  0.75429211     0.16600
O752        O  0.48023652  0.58588667  0.79329202    -0.60300
H753        H  0.56532972  0.64709645  0.88293266     0.16600
O754        O  0.57597277  0.71345724  0.84341048    -0.60400
H755        H  0.60169177  0.71060405  0.82851698     0.43600
H756        H  0.45379306  0.59071779  0.80632627     0.43600
C757        C  0.52345932  0.59569917  0.11176204    -0.05500
C758        C  0.50362937  0.58746790  0.14848953    -0.32900
C759        C  0.49896969  0.61766154  0.17843295     0.36400
C760        C  0.51540347  0.65654106  0.17266568    -0.05800
C761        C  0.53690632  0.66383780  0.13694081    -0.32800
C762        C  0.54061263  0.63435590  0.10672793     0.36300
H763        H  0.48981387  0.55823455  0.15314907     0.16600
O764        O  0.47659190  0.60948481  0.21216565    -0.60300
H765        H  0.54928179  0.69359356  0.13143966     0.16600
O766        O  0.55999905  0.64425480  0.07162884    -0.60400
H767        H  0.58862623  0.64798577  0.07926191     0.43600
H768        H  0.44808822  0.61124965  0.20332366     0.43600
C769        C  0.54554375  0.32563443  0.09136565    -0.05500
C770        C  0.53355686  0.28587607  0.08250728    -0.32900
C771        C  0.53270028  0.25587266  0.11266925     0.36400
C772        C  0.54437350  0.26484884  0.15268531    -0.05800
C773        C  0.56011686  0.30331393  0.16061841    -0.32800
C774        C  0.56126979  0.33328688  0.13046696     0.36300
H775        H  0.52215252  0.27855024  0.05280352     0.16600
O776        O  0.51729711  0.21853894  0.10358372    -0.60300
H777        H  0.56870131  0.31120566  0.19112875     0.16600
O778        O  0.57616127  0.37060328  0.14030163    -0.60400
H779        H  0.60570062  0.36839786  0.13637158     0.43600
H780        H  0.48778704  0.22254750  0.10131820     0.43600
C781        C  0.60049950  0.15652027  0.02910340    -0.05500
C782        C  0.59205799  0.19821740  0.02694934    -0.32900
C783        C  0.62330697  0.22706465  0.02293687     0.36400
C784        C  0.66424867  0.21509514  0.02284112    -0.05800
C785        C  0.67279148  0.17395269  0.02719388    -0.32800
C786        C  0.64192326  0.14495394  0.02994923     0.36300
H787        H  0.56108219  0.20846043  0.02598621     0.16600
O788        O  0.61342833  0.26670576  0.01622157    -0.60300
H789        H  0.70375532  0.16373374  0.02507607     0.16600
O790        O  0.65299727  0.10502923  0.02976863    -0.60400
H791        H  0.66530459  0.10002387  0.05650941     0.43600
H792        H  0.60901666  0.26881323  0.98672798     0.43600
C793        C  0.34059835  0.87438303  0.01594490    -0.05500
C794        C  0.34564727  0.84312737  0.04396181    -0.32900
C795        C  0.32164032  0.80847616  0.04223119     0.36400
C796        C  0.29295911  0.80380778  0.01117532    -0.05800
C797        C  0.28543119  0.83640671  0.98526208    -0.32800
C798        C  0.30875233  0.87178206  0.98776181     0.36300
H799        H  0.36904204  0.84512437  0.06668605     0.16600
O800        O  0.32839271  0.77790536  0.06927397    -0.60300
H801        H  0.26352023  0.83334999  0.96123491     0.16600
O802        O  0.30182532  0.90249099  0.96093188    -0.60400
H803        H  0.31653412  0.89466756  0.93612782     0.43600
H804        H  0.31199246  0.78500846  0.09321927     0.43600
C805        C  0.61097579  0.88839950  0.02852913    -0.05500
C806        C  0.60244781  0.84838623  0.03975924    -0.32900
C807        C  0.63113482  0.81743038  0.03512126     0.36400
C808        C  0.66939127  0.82563233  0.01831801    -0.05800
C809        C  0.67933324  0.86609928  0.01037333    -0.32800
C810        C  0.65076841  0.89734216  0.01576349     0.36300
H811        H  0.57292570  0.84068042  0.05132984     0.16600
O812        O  0.62146460  0.77887262  0.04680391    -0.60300
H813        H  0.70856030  0.87329283  0.99779674     0.16600
O814        O  0.66175392  0.93619966  0.00681911    -0.60400
H815        H  0.65470555  0.93984497  0.97802157     0.43600
H816        H  0.59939942  0.77010502  0.02862538     0.43600
C817        C  0.32311681  0.14005091  0.00923220    -0.05500
C818        C  0.29597380  0.13858461  0.97671674    -0.32900
C819        C  0.26421804  0.16654980  0.97355875     0.36400
C820        C  0.25861968  0.19628173  0.00357501    -0.05800
C821        C  0.28355466  0.19508492  0.03793313    -0.32800
C822        C  0.31562945  0.16746469  0.04077719     0.36300
H823        H  0.30084477  0.11717264  0.95249345     0.16600
O824        O  0.24220336  0.16791221  0.93855155    -0.60300
H825        H  0.28079543  0.21841506  0.06068106     0.16600
O826        O  0.34046556  0.16864161  0.07379439    -0.60400
H827        H  0.33177739  0.14580101  0.09101768     0.43600
H828        H  0.21387317  0.16304537  0.94667692     0.43600
C829        C  0.46197945  0.14083751  0.87867993    -0.05500
C830        C  0.43744510  0.12970053  0.84578989    -0.32900
C831        C  0.44303908  0.14707987  0.80781761     0.36400
C832        C  0.47364962  0.17561301  0.80248067    -0.05800
C833        C  0.49684979  0.18803743  0.83586551    -0.32800
C834        C  0.49120196  0.17085483  0.87374021     0.36300
H835        H  0.41515477  0.10605252  0.84921688     0.16600
O836        O  0.41923570  0.13539979  0.77610307    -0.60300
H837        H  0.52049083  0.21028977  0.83219183     0.16600
O838        O  0.51629978  0.18141053  0.90488925    -0.60400
H839        H  0.54070163  0.16443273  0.90145427     0.43600
H840        H  0.39535356  0.15338072  0.77724978     0.43600
C841        C  0.48552275  0.88272663  0.88593298     0.07700
C842        C  0.51176242  0.89088225  0.85386202    -0.32900
C843        C  0.51698993  0.86306663  0.82275006     0.36400
C844        C  0.49486983  0.82680841  0.82284979    -0.05800
C845        C  0.46814697  0.81890899  0.85472991    -0.32800
C846        C  0.46371642  0.84635203  0.88638370     0.36300
H847        H  0.52929160  0.91847238  0.85354184     0.16600
O848        O  0.54597251  0.87018367  0.79414640    -0.60300
H849        H  0.45100593  0.79109640  0.85535220     0.16600
O850        O  0.43807072  0.83734069  0.91749032    -0.60400
H851        H  0.41132353  0.84750953  0.90881696     0.43600
H852        H  0.53474863  0.89166852  0.77660955     0.43600
C853        C  0.46886687  0.87716868  0.14648000    -0.05500
C854        C  0.50293500  0.85254814  0.14163374    -0.32900
C855        C  0.50334610  0.81317461  0.15602223     0.36400
C856        C  0.46942088  0.79776660  0.17609260    -0.05800
C857        C  0.43578013  0.82274493  0.18247491    -0.32800
C858        C  0.43499314  0.86211291  0.16688199     0.36300
H859        H  0.52876030  0.86340020  0.12482504     0.16600
O860        O  0.53725659  0.78998562  0.15072339    -0.60300
H861        H  0.41016877  0.81157950  0.19931617     0.16600
O862        O  0.40069546  0.88496380  0.17027882    -0.60400
H863        H  0.38206156  0.87423158  0.14949542     0.43600
H864        H  0.55600604  0.79834358  0.17246087     0.43600
C865        C  0.42343437  0.14915334  0.14654182    -0.05500
C866        C  0.41541881  0.18915703  0.13420044    -0.32900
C867        C  0.40926987  0.21900892  0.16352631     0.36400
C868        C  0.41973054  0.20941823  0.20362632    -0.05800
C869        C  0.40779866  0.17031127  0.21482375    -0.32800
C870        C  0.41511360  0.13914904  0.18720233     0.36300
H871        H  0.41560132  0.19755488  0.10267009     0.16600
O872        O  0.40220290  0.25815235  0.15212482    -0.60300
H873        H  0.40441049  0.16262643  0.24633346     0.16600
O874        O  0.41774982  0.10026757  0.20103668    -0.60400
H875        H  0.39034204  0.08894212  0.19772312     0.43600
H876        H  0.37266296  0.26175864  0.15464918     0.43600
C877        C  0.25512711  0.00154685  0.19701942    -0.05500
C878        C  0.26261759  0.97007732  0.16943167    -0.32900
C879        C  0.29530632  0.97183004  0.14246212     0.36400
C880        C  0.32016450  0.00628736  0.14108588    -0.05800
C881        C  0.31073594  0.03910453  0.16612764    -0.32800
C882        C  0.27888582  0.03687624  0.19402229     0.36300
H883        H  0.24647749  0.94182833  0.17253870     0.16600
O884        O  0.30478023  0.93832553  0.12006664    -0.60300
H885        H  0.32925681  0.06596800  0.16526437     0.16600
O886        O  0.27530105  0.06680468  0.22238331    -0.60400
H887        H  0.25234510  0.08361809  0.21321380     0.43600
H888        H  0.32127512  0.92115611  0.13819193     0.43600
C889        C  0.67127519  0.01846240  0.83173308    -0.05500
C890        C  0.63401001  0.03783604  0.82526586    -0.32900
C891        C  0.60517236  0.04136027  0.85602993     0.36400
C892        C  0.61266231  0.02514813  0.89470363    -0.05800
C893        C  0.65149116  0.00949208  0.90243064    -0.32800
C894        C  0.68061342  0.00621413  0.87141643     0.36300
H895        H  0.62631423  0.04863136  0.79541617     0.16600
O896        O  0.56905437  0.05960108  0.84737859    -0.60300
H897        H  0.65866749  0.99783386  0.93203346     0.16600
O898        O  0.71679167  0.98797544  0.87955643    -0.60400
H899        H  0.73486211  0.01019781  0.88815421     0.43600
H900        H  0.57319164  0.08861280  0.85350323     0.43600
C901        C  0.29649198  0.01295952  0.80570139    -0.05500
C902        C  0.31106742  0.97637272  0.82140366    -0.32900
C903        C  0.33496756  0.97577661  0.85618638     0.36400
C904        C  0.34425654  0.01203620  0.87607327    -0.05800
C905        C  0.32787446  0.04844964  0.86186321    -0.32800
C906        C  0.30430860  0.04912543  0.82667911     0.36300
H907        H  0.30603482  0.94846324  0.80511146     0.16600
O908        O  0.35019583  0.93975943  0.86980249    -0.60300
H909        H  0.33501261  0.07657457  0.87695954     0.16600
O910        O  0.29222194  0.08552889  0.81113336    -0.60400
H911        H  0.26296380  0.08725954  0.81690783     0.43600
H912        H  0.37756850  0.93775259  0.85799403     0.43600
C913        C  0.54262572  0.15625743  0.26535199    -0.05500
C914        C  0.55158455  0.16611773  0.30538727    -0.32900
C915        C  0.55298381  0.13647178  0.33572930     0.36400
C916        C  0.54584544  0.09506944  0.32665354    -0.05800
C917        C  0.53975241  0.08492438  0.28577888    -0.32800
C918        C  0.53775101  0.11496980  0.25554336     0.36300
H919        H  0.55430954  0.19758880  0.31390422     0.16600
O920        O  0.55987686  0.14895198  0.37453201    -0.60300
H921        H  0.53425235  0.05381581  0.27738651     0.16600
O922        O  0.52753159  0.10392838  0.21704795    -0.60400
H923        H  0.55338021  0.10295007  0.20213464     0.43600
H924        H  0.53386208  0.16028237  0.38397993     0.43600
C925        C  0.52414471  0.75152155  0.29643448    -0.05500
C926        C  0.50008993  0.75071764  0.33119571    -0.32900
C927        C  0.50037521  0.78302901  0.35880884     0.36400
C928        C  0.52432355  0.81765018  0.35147632    -0.05800
C929        C  0.55146890  0.81642288  0.31911840    -0.32800
C930        C  0.55225095  0.78341432  0.29244025     0.36300
H931        H  0.47769482  0.72719604  0.33462344     0.16600
O932        O  0.47410843  0.78211258  0.39067530    -0.60300
H933        H  0.57135374  0.84170898  0.31373684     0.16600
O934        O  0.57618789  0.78567319  0.25886312    -0.60400
H935        H  0.59979531  0.76835737  0.26496075     0.43600
H936        H  0.48765963  0.76542885  0.41147509     0.43600
C937        C  0.53799677  0.11119315  0.59788606    -0.05500
C938        C  0.55828694  0.10602448  0.63481057    -0.32900
C939        C  0.55435902  0.13436029  0.66631525     0.36400
C940        C  0.52889782  0.16831343  0.66206374    -0.05800
C941        C  0.51038796  0.17468340  0.62449889    -0.32800
C942        C  0.51512846  0.14682862  0.59259231     0.36300
H943        H  0.57667633  0.07940607  0.63960698     0.16600
O944        O  0.57444085  0.12778668  0.70183001    -0.60300
H945        H  0.49035226  0.20021805  0.62052356     0.16600
O946        O  0.49446418  0.15311442  0.55746439    -0.60400
H947        H  0.51051999  0.17342571  0.54255148     0.43600
H948        H  0.60018762  0.14269822  0.69908552     0.43600
C949        C  0.52058727  0.84239330  0.61342591    -0.05500
C950        C  0.55148989  0.84644372  0.64191604    -0.32900
C951        C  0.55367384  0.82075763  0.67523553     0.36400
C952        C  0.52396148  0.79101827  0.68143192    -0.05800
C953        C  0.49432071  0.78523667  0.65172149    -0.32800
C954        C  0.49279982  0.81038473  0.61753665     0.36300
H955        H  0.57369371  0.87020458  0.63872966     0.16600
O956        O  0.58303411  0.82721084  0.70361461    -0.60300
H957        H  0.47070542  0.76319416  0.65643719     0.16600
O958        O  0.46191698  0.80579808  0.59042783    -0.60400
H959        H  0.47313494  0.78878211  0.56854510     0.43600
H960        H  0.60611430  0.81031690  0.69488499     0.43600
C961        C  0.39238645  0.97413423  0.34101956    -0.05500
C962        C  0.36877136  0.00921610  0.34175144    -0.32900
C963        C  0.32816391  0.00777325  0.33139615     0.36400
C964        C  0.31044248  0.97074191  0.32064085    -0.05800
C965        C  0.33471270  0.93611066  0.31733189    -0.32800
C966        C  0.37561549  0.93768371  0.32738075     0.36300
H967        H  0.38134985  0.03733398  0.35278925     0.16600
O968        O  0.30603876  0.04279987  0.33141564    -0.60300
H969        H  0.32187468  0.90800392  0.30665889     0.16600
O970        O  0.39803519  0.90286855  0.32702714    -0.60400
H971        H  0.41543074  0.90497681  0.30283850     0.43600
H972        H  0.30893043  0.05393982  0.30383619     0.43600
C973        C  0.65304909  0.96346161  0.61010566    -0.05500
C974        C  0.65264602  0.00004442  0.63118993    -0.32900
C975        C  0.66279921  0.00141715  0.67171769     0.36400
C976        C  0.67454567  0.96591840  0.69172989    -0.05800
C977        C  0.67691560  0.92941349  0.67024970    -0.32800
C978        C  0.66583875  0.92797412  0.62950932     0.36300
H979        H  0.64192754  0.02735857  0.61667327     0.16600
O980        O  0.66310428  0.03801120  0.69114809    -0.60300
H981        H  0.68777611  0.90233532  0.68500266     0.16600
O982        O  0.66578328  0.89171388  0.60954846    -0.60400
H983        H  0.69197457  0.89066035  0.59521755     0.43600
H984        H  0.63476777  0.04285137  0.69930760     0.43600
C985        C  0.39427433  0.99002842  0.60262949    -0.05500
C986        C  0.36184504  0.01611051  0.59518886    -0.32900
C987        C  0.33225394  0.02261188  0.62445470     0.36400
C988        C  0.33430253  0.00201855  0.66165935    -0.05800
C989        C  0.36691322  0.97593367  0.66899617    -0.32800
C990        C  0.39698896  0.97026079  0.64009223     0.36300
H991        H  0.35993078  0.03235559  0.56691161     0.16600
O992        O  0.30274657  0.05079425  0.61727725    -0.60300
H993        H  0.36891078  0.95938204  0.69706508     0.16600
O994        O  0.42796973  0.94397910  0.64808458    -0.60400
H995        H  0.44665060  0.95905349  0.66592597     0.43600
H996        H  0.28587232  0.03936704  0.59537832     0.43600
C997        C  0.59311602  0.03176275  0.16578769    -0.05500
C998        C  0.58582464  0.01452114  0.20384517    -0.32900
C999        C  0.61652633  0.01194833  0.23325046     0.36400
C1000       C  0.65582859  0.02673045  0.22539966    -0.05800
C1001       C  0.66207374  0.04721208  0.18891059    -0.32800
C1002       C  0.63125015  0.05012621  0.15960930     0.36300
H1003       H  0.55694943  0.00065332  0.21003065     0.16600
O1004       O  0.60890717  0.99120396  0.26816790    -0.60300
H1005       H  0.69185192  0.05847471  0.18178013     0.16600
O1006       O  0.63952108  0.06956468  0.12416108    -0.60400
H1007       H  0.62772219  0.09691315  0.12726622     0.43600
H1008       H  0.60420650  0.01226680  0.28887992     0.43600
C1009       C  0.71214718  0.90434473  0.28319145    -0.05500
C1010       C  0.72481945  0.89557255  0.32275957    -0.32900
C1011       C  0.69805373  0.90472960  0.35420878     0.36400
C1012       C  0.65703894  0.91213155  0.34474134    -0.05800
C1013       C  0.64362723  0.90127735  0.30588759    -0.32800
C1014       C  0.67197522  0.89272753  0.27580955     0.36300
H1015       H  0.75656963  0.89264643  0.32967676     0.16600
O1016       O  0.71246556  0.90800142  0.39283927    -0.60300
H1017       H  0.61190897  0.90123500  0.29827019     0.16600
O1018       O  0.65936377  0.88308977  0.23764415    -0.60400
H1019       H  0.64789731  0.85554365  0.23979387     0.43600
H1020       H  0.72747675  0.93383562  0.39364136     0.43600
C1021       C  0.30769795  0.79934204  0.47483819    -0.05500
C1022       C  0.30859056  0.83435467  0.45078052    -0.32900
C1023       C  0.34238698  0.85959661  0.44982426     0.36400
C1024       C  0.37712506  0.84971642  0.47228280    -0.05800
C1025       C  0.37733139  0.81329749  0.49427675    -0.32800
C1026       C  0.34287062  0.78850199  0.49605664     0.36300
H1027       H  0.28195727  0.84334833  0.43411570     0.16600
O1028       O  0.34053773  0.89449151  0.42764873    -0.60300
H1029       H  0.40361351  0.80502460  0.51181799     0.16600
O1030       O  0.34281136  0.75579914  0.52133406    -0.60400
H1031       H  0.35164048  0.73275929  0.50441582     0.43600
H1032       H  0.35426849  0.88809284  0.40190745     0.43600
C1033       C  0.69762161  0.74919020  0.46602188    -0.05500
C1034       C  0.66242451  0.74715629  0.48946387    -0.32900
C1035       C  0.63442866  0.77912582  0.48980110     0.36400
C1036       C  0.64131007  0.81415883  0.46647907    -0.05800
C1037       C  0.67372627  0.81386664  0.43931940    -0.32800
C1038       C  0.70113354  0.78143478  0.43827299     0.36300
H1039       H  0.65922983  0.72319854  0.51143104     0.16600
O1040       O  0.60228830  0.77716759  0.51567149    -0.60300
H1041       H  0.67881627  0.83965379  0.41999298     0.16600
O1042       O  0.73499740  0.78491173  0.41486458    -0.60400
H1043       H  0.73074381  0.76601393  0.39208695     0.43600
H1044       H  0.61162287  0.79031171  0.54086476     0.43600
C1045       C  0.73591748  0.15117984  0.45935115    -0.05500
C1046       C  0.70040281  0.15664848  0.43715659    -0.32900
C1047       C  0.67158006  0.12554664  0.43401776     0.36400
C1048       C  0.67710929  0.08823757  0.45428356    -0.05800
C1049       C  0.71455984  0.08144770  0.47291390    -0.32800
C1050       C  0.74396136  0.11215273  0.47491232     0.36300
H1051       H  0.69339540  0.18615492  0.42494870     0.16600
O1052       O  0.63692391  0.13292829  0.41283618    -0.60300
H1053       H  0.71991097  0.05330579  0.48858971     0.16600
O1054       O  0.77873965  0.10512165  0.49613493    -0.60400
H1055       H  0.79937858  0.09883593  0.47546867     0.43600
H1056       H  0.64216126  0.12221669  0.38541922     0.43600
C1057       C  0.33703847  0.16895049  0.47148246    -0.05500
C1058       C  0.37625208  0.18023865  0.48335018    -0.32900
C1059       C  0.40956541  0.15389202  0.47779918     0.36400
C1060       C  0.40400699  0.11487666  0.46127367    -0.05800
C1061       C  0.36541227  0.10535583  0.44639750    -0.32800
C1062       C  0.33266418  0.13185324  0.45074203     0.36300
H1063       H  0.38080739  0.20866219  0.49883654     0.16600
O1064       O  0.44677923  0.16572554  0.49099320    -0.60300
H1065       H  0.36012150  0.07640607  0.43211604     0.16600
O1066       O  0.29587600  0.12019698  0.43591493    -0.60400
H1067       H  0.29350795  0.13363807  0.40933416     0.43600
H1068       H  0.45835014  0.18157656  0.46847921     0.43600
C1069       C  0.79792878  0.00890077  0.74015391    -0.05500
C1070       C  0.79821150  0.04215858  0.71371979    -0.32900
C1071       C  0.82547820  0.04427268  0.68121104     0.36400
C1072       C  0.85373910  0.01317496  0.67465255    -0.05800
C1073       C  0.85637835  0.98215518  0.70355369    -0.32800
C1074       C  0.82848924  0.97952642  0.73553965     0.36300
H1075       H  0.77437700  0.06446656  0.71564470     0.16600
O1076       O  0.82315675  0.07614184  0.65504722    -0.60300
H1077       H  0.87848976  0.95835449  0.69983075     0.16600
O1078       O  0.82889615  0.94611720  0.75996312    -0.60400
H1079       H  0.81413323  0.92496658  0.74479629     0.43600
H1080       H  0.83791294  0.09844709  0.66845148     0.43600
C1081       C  0.18971808  0.01946942  0.69477974    -0.05500
C1082       C  0.18365256  0.04749540  0.66358143    -0.32900
C1083       C  0.14894591  0.04645487  0.63970037     0.36400
C1084       C  0.11872529  0.01765654  0.64720947    -0.05800
C1085       C  0.12292970  0.99193043  0.68075690    -0.32800
C1086       C  0.15831114  0.99253451  0.70436518     0.36300
H1087       H  0.20719927  0.06886427  0.65610208     0.16600
O1088       O  0.14477918  0.07383710  0.60896921    -0.60300
H1089       H  0.09978375  0.96985875  0.68729255     0.16600
O1090       O  0.16322646  0.96452553  0.73435887    -0.60400
H1091       H  0.15355203  0.97804158  0.75920653     0.43600
H1092       H  0.16288998  0.06418498  0.58723434     0.43600
C1093       C  0.09943474  0.01611844  0.38018627    -0.05500
C1094       C  0.13584008  0.03687127  0.38641275    -0.32900
C1095       C  0.16773221  0.03438860  0.35864887     0.36400
C1096       C  0.16471361  0.00953051  0.32413171    -0.05800
C1097       C  0.12741868  0.99067817  0.31647376    -0.32800
C1098       C  0.09491793  0.99406732  0.34394678     0.36300
H1099       H  0.13991847  0.05479281  0.41343590     0.16600
O1100       O  0.20252630  0.05534774  0.36633629    -0.60300
H1101       H  0.12414827  0.97144254  0.29026904     0.16600
O1102       O  0.05970547  0.97395296  0.33605546    -0.60400
H1103       H  0.06444180  0.94590043  0.34535115     0.43600
H1104       H  0.19648187  0.08368997  0.35882428     0.43600
C1105       C  0.77191440  0.02650806  0.33161100    -0.05500
C1106       C  0.76101800  0.01622308  0.37142303    -0.32900
C1107       C  0.78939423  0.01615903  0.40327858     0.36400
C1108       C  0.82979200  0.02783534  0.39636900    -0.05800
C1109       C  0.83990908  0.04042409  0.35689311    -0.32800
C1110       C  0.81189181  0.03898431  0.32488687     0.36300
H1111       H  0.73102274  0.00472804  0.37711941     0.16600
O1112       O  0.77814078  0.00040598  0.43974179    -0.60300
H1113       H  0.87047349  0.04957856  0.35009116     0.16600
O1114       O  0.82469182  0.04727669  0.28649552    -0.60400
H1115       H  0.83632893  0.02160854  0.27637206     0.43600
H1116       H  0.77590967  0.02386809  0.45806426     0.43600
C1117       C  0.10192661  0.87671527  0.51421276    -0.05500
C1118       C  0.13716457  0.88095550  0.53713552    -0.32900
C1119       C  0.16760453  0.85199886  0.53502977     0.36400
C1120       C  0.16366479  0.81901587  0.50850963    -0.05800
C1121       C  0.12770157  0.81414964  0.48664417    -0.32800
C1122       C  0.09659825  0.84227774  0.48998929     0.36300
H1123       H  0.14102824  0.90676203  0.55685775     0.16600
O1124       O  0.20115751  0.85637907  0.55877776    -0.60300
H1125       H  0.12411551  0.78916205  0.46586835     0.16600
O1126       O  0.06227791  0.83720338  0.46745879    -0.60400
H1127       H  0.04568201  0.81761721  0.48275644     0.43600
H1128       H  0.19540438  0.84053853  0.58344790     0.43600
C1129       C  0.80798366  0.80462760  0.53017165    -0.05500
C1130       C  0.83725235  0.80870604  0.56022334    -0.32900
C1131       C  0.85488469  0.84634281  0.56750060     0.36400
C1132       C  0.84341782  0.88020001  0.54428562    -0.05800
C1133       C  0.81168997  0.87699294  0.51709426    -0.32800
C1134       C  0.79435435  0.83954010  0.50938144     0.36300
H1135       H  0.84747447  0.78252544  0.57691180     0.16600
O1136       O  0.88566632  0.84918543  0.59495071    -0.60300
H1137       H  0.80333412  0.90255225  0.49846273     0.16600
O1138       O  0.76738185  0.83668234  0.47817709    -0.60400
H1139       H  0.74264491  0.85056851  0.48767221     0.43600
H1140       H  0.87226270  0.85457273  0.62109503     0.43600
C1141       C  0.84725483  0.14738982  0.57177091    -0.05500
C1142       C  0.80796019  0.13551903  0.58289871    -0.32900
C1143       C  0.77967540  0.16506706  0.59365067     0.36400
C1144       C  0.78863918  0.20528501  0.58316100    -0.05800
C1145       C  0.82899284  0.21568773  0.59110253    -0.32800
C1146       C  0.85883120  0.18760100  0.58054622     0.36300
H1147       H  0.79880461  0.10416416  0.58208585     0.16600
O1148       O  0.74121432  0.15404434  0.60383916    -0.60300
H1149       H  0.83758090  0.24697727  0.59484331     0.16600
O1150       O  0.89815109  0.19998560  0.57782421    -0.60400
H1151       H  0.90025924  0.21376575  0.55140669     0.43600
H1152       H  0.74276714  0.14631226  0.63265248     0.43600
C1153       C  0.11528816  0.13815014  0.51872686    -0.05500
C1154       C  0.13917818  0.13524891  0.48403372    -0.32900
C1155       C  0.17834249  0.15019629  0.48371210     0.36400
C1156       C  0.19464716  0.16767729  0.51877185    -0.05800
C1157       C  0.17033289  0.17181429  0.55321359    -0.32800
C1158       C  0.13077090  0.15701035  0.55335876     0.36300
H1159       H  0.12770627  0.12015170  0.45739589     0.16600
O1160       O  0.20024724  0.14827338  0.44869634    -0.60300
H1161       H  0.18205170  0.18671793  0.57981723     0.16600
O1162       O  0.10846502  0.15884549  0.58807354    -0.60400
H1163       H  0.09017023  0.18224855  0.58442269     0.43600
H1164       H  0.19703984  0.17516800  0.43595196     0.43600
C1165       C  0.97483006  0.67032187  0.13644125    -0.05500
C1166       C  0.00297938  0.70179016  0.13240107    -0.32900
C1167       C  0.00457402  0.73364041  0.16055079     0.36400
C1168       C  0.97744314  0.73500775  0.19324030    -0.05800
C1169       C  0.94614287  0.70631800  0.19411301    -0.32800
C1170       C  0.94474793  0.67436777  0.16610125     0.36300
H1171       H  0.02554731  0.70033866  0.10887706     0.16600
O1172       O  0.03537176  0.76111422  0.15830707    -0.60300
H1173       H  0.92522939  0.70614496  0.21917486     0.16600
O1174       O  0.91447902  0.64655874  0.16881541    -0.60400
H1175       H  0.89480789  0.65431302  0.14766250     0.43600
H1176       H  0.05859070  0.74809095  0.17194805     0.43600
C1177       C  0.96561248  0.88519107  0.38237532    -0.05500
C1178       C  0.98149285  0.89460132  0.34400506    -0.32900
C1179       C  0.98718997  0.86454254  0.31420340     0.36400
C1180       C  0.97655051  0.82408437  0.32197850    -0.05800
C1181       C  0.95807416  0.81532025  0.35916138    -0.32800
C1182       C  0.95279037  0.84505111  0.38903417     0.36300
H1183       H  0.99130849  0.92507291  0.33763022     0.16600
O1184       O  0.00609990  0.87451815  0.27889337    -0.60300
H1185       H  0.94917256  0.78457898  0.36583960     0.16600
O1186       O  0.93493308  0.83434445  0.42471667    -0.60400
H1187       H  0.95652098  0.82123356  0.44074597     0.43600
H1188       H  0.98412052  0.88244142  0.26024720     0.43600
C1189       C  0.96972597  0.31949593  0.82515613    -0.05500
C1190       C  0.98884173  0.31276339  0.86238942    -0.32900
C1191       C  0.98682029  0.34149796  0.89378582     0.36400
C1192       C  0.96553830  0.37810385  0.88848716    -0.05800
C1193       C  0.94488518  0.38394844  0.85188771    -0.32800
C1194       C  0.94670777  0.35517556  0.82060053     0.36300
H1195       H  0.00755132  0.28623608  0.86630921     0.16600
O1196       O  0.00874775  0.33498593  0.92817549    -0.60300
H1197       H  0.92790827  0.41145590  0.84706174     0.16600
O1198       O  0.92610004  0.36225877  0.78539388    -0.60400
H1199       H  0.93923503  0.38604908  0.77291946     0.43600
H1200       H  0.99051193  0.31980825  0.94630285     0.43600
C1201       C  0.98002207  0.13735351  0.67064875    -0.05500
C1202       C  0.94681010  0.16266477  0.67740157    -0.32900
C1203       C  0.94523651  0.18789354  0.71152624     0.36400
C1204       C  0.97763650  0.18891126  0.73923908    -0.05800
C1205       C  0.00850755  0.16002185  0.73470718    -0.32800
C1206       C  0.00996377  0.13464479  0.70074338     0.36300
H1207       H  0.92244173  0.16360720  0.65567080     0.16600
O1208       O  0.91421348  0.21507704  0.71499732    -0.60300
H1209       H  0.03438170  0.16095375  0.75463025     0.16600
O1210       O  0.04279039  0.11000974  0.69535730    -0.60400
H1211       H  0.03570980  0.08429566  0.70886442     0.43600
H1212       H  0.92223800  0.23858656  0.69834972     0.43600
C1213       C  0.98070848  0.69300446  0.80151895    -0.05500
C1214       C  0.00724719  0.70026455  0.83365456    -0.32900
C1215       C  0.00503569  0.67694789  0.86898196     0.36400
C1216       C  0.97642994  0.64559967  0.87208318    -0.05800
C1217       C  0.94825640  0.64033993  0.84103094    -0.32800
C1218       C  0.94979589  0.66416558  0.80633592     0.36300
H1219       H  0.03117832  0.72223752  0.83042391     0.16600
O1220       O  0.03240888  0.68344731  0.89928035    -0.60300
H1221       H  0.92545767  0.61705290  0.84334390     0.16600
O1222       O  0.92238637  0.65729703  0.77609347    -0.60400
H1223       H  0.90502730  0.68167954  0.77541585     0.43600
H1224       H  0.05611653  0.66665557  0.89217940     0.43600
C1225       C  0.99427420  0.80716945  0.70012201    -0.05500
C1226       C  0.02724093  0.82287799  0.67876644    -0.32900
C1227       C  0.02258479  0.85663363  0.65409530     0.36400
C1228       C  0.98493176  0.87566327  0.65132272    -0.05800
C1229       C  0.95270762  0.86216499  0.67501067    -0.32800
C1230       C  0.95707951  0.82763574  0.69902798     0.36300
H1231       H  0.05576453  0.80691458  0.67867550     0.16600
O1232       O  0.05462166  0.87011194  0.63171189    -0.60300
H1233       H  0.92364977  0.87696863  0.67307092     0.16600
O1234       O  0.92384702  0.81154244  0.71751310    -0.60400
H1235       H  0.92401691  0.82298084  0.74512248     0.43600
H1236       H  0.05236265  0.85602304  0.60542006     0.43600
C1237       C  0.15605167  0.61280263  0.47221669    -0.05500
C1238       C  0.18466810  0.61656283  0.50327684    -0.32900
C1239       C  0.20961530  0.65086320  0.50584769     0.36400
C1240       C  0.20714641  0.68123971  0.47627295    -0.05800
C1241       C  0.18065030  0.67576434  0.44362131    -0.32800
C1242       C  0.15482001  0.64236704  0.44180998     0.36300
H1243       H  0.18581542  0.59420496  0.52706699     0.16600
O1244       O  0.23308644  0.65651342  0.53942049    -0.60300
H1245       H  0.17755006  0.69932072  0.42117711     0.16600
O1246       O  0.12796091  0.63923993  0.41051343    -0.60400
H1247       H  0.10417374  0.65534135  0.41886745     0.43600
H1248       H  0.25484481  0.63607246  0.53743663     0.43600
C1249       C  0.83599046  0.27082092  0.46380854    -0.05500
C1250       C  0.87621881  0.25937436  0.47113621    -0.32900
C1251       C  0.90798354  0.28768618  0.46966235     0.36400
C1252       C  0.90015561  0.32854286  0.45986733    -0.05800
C1253       C  0.85997915  0.33917492  0.45034044    -0.32800
C1254       C  0.82830665  0.31109628  0.45281480     0.36300
H1255       H  0.88266479  0.22885746  0.48093708     0.16600
O1256       O  0.94607665  0.27536805  0.47996906    -0.60300
H1257       H  0.85250826  0.37004125  0.44258239     0.16600
O1258       O  0.78945489  0.32421991  0.44763696    -0.60400
H1259       H  0.78250300  0.31708507  0.41945946     0.43600
H1260       H  0.94634505  0.27476807  0.50984145     0.43600
C1261       C  0.17683232  0.34886045  0.47817653    -0.05500
C1262       C  0.20713894  0.35247839  0.50776878    -0.32900
C1263       C  0.23993142  0.32529989  0.50909943     0.36400
C1264       C  0.24334852  0.29409253  0.48028162    -0.05800
C1265       C  0.21571129  0.29387863  0.44805101    -0.32800
C1266       C  0.18282960  0.32072131  0.44696434     0.36300
H1267       H  0.20439586  0.37525165  0.53105428     0.16600
O1268       O  0.26713910  0.32786007  0.54014114    -0.60300
H1269       H  0.21712815  0.26991431  0.42584008     0.16600
O1270       O  0.15615121  0.31856144  0.41559274    -0.60400
H1271       H  0.16823339  0.33512107  0.39385776     0.43600
H1272       H  0.25680578  0.30950545  0.56132578     0.43600
C1273       C  0.88783785  0.60213133  0.46187413    -0.05500
C1274       C  0.84895506  0.59377308  0.47700175    -0.32900
C1275       C  0.81993234  0.62476233  0.48246401     0.36400
C1276       C  0.82904531  0.66525094  0.47262323    -0.05800
C1277       C  0.86718759  0.67324290  0.45596525    -0.32800
C1278       C  0.89601800  0.64246758  0.45025617     0.36300
H1279       H  0.84147705  0.56335483  0.48629312     0.16600
O1280       O  0.78335579  0.61536644  0.49917546    -0.60300
H1281       H  0.87504933  0.70389561  0.44778737     0.16600
O1282       O  0.93254580  0.65252675  0.43381252    -0.60400
H1283       H  0.92756760  0.65464921  0.40442480     0.43600
H1284       H  0.78828808  0.61403538  0.52862437     0.43600
C1285       C  0.17866814  0.46117682  0.35228622    -0.05500
C1286       C  0.18228566  0.42752829  0.32683842    -0.32900
C1287       C  0.21402703  0.42484510  0.29882467     0.36400
C1288       C  0.24238291  0.45650835  0.29537766    -0.05800
C1289       C  0.24148467  0.48735455  0.32453098    -0.32800
C1290       C  0.20996109  0.48990293  0.35268119     0.36300
H1291       H  0.15953261  0.40412584  0.32746481     0.16600
O1292       O  0.21441615  0.39359971  0.27164866    -0.60300
H1293       H  0.26206864  0.51258492  0.32189652     0.16600
O1294       O  0.20756996  0.52308796  0.37730867    -0.60400
H1295       H  0.22553581  0.51697772  0.40040178     0.43600
H1296       H  0.19255506  0.39967719  0.25218799     0.43600
C1297       C  0.83836354  0.45708062  0.26553368    -0.05500
C1298       C  0.87822468  0.46735877  0.25469142    -0.32900
C1299       C  0.91013089  0.46656649  0.28299669     0.36400
C1300       C  0.90299980  0.45473012  0.32332869    -0.05800
C1301       C  0.86371382  0.44137269  0.33302645    -0.32800
C1302       C  0.83184741  0.44259578  0.30482213     0.36300
H1303       H  0.88390954  0.47981807  0.22504627     0.16600
O1304       O  0.94728535  0.48046566  0.27151395    -0.60300
H1305       H  0.85694828  0.43168288  0.36343795     0.16600
O1306       O  0.79348258  0.43373915  0.31729822    -0.60400
H1307       H  0.79298111  0.40401116  0.32075208     0.43600
H1308       H  0.94646591  0.51001117  0.27635115     0.43600
C1309       C  0.19969710  0.47715836  0.68429515    -0.05500
C1310       C  0.19558673  0.44184823  0.66120763    -0.32900
C1311       C  0.17073590  0.44140792  0.62680882     0.36400
C1312       C  0.14973337  0.47657425  0.61529422    -0.05800
C1313       C  0.15508873  0.51212376  0.63733675    -0.32800
C1314       C  0.17970473  0.51261318  0.67160452     0.36300
H1315       H  0.20959233  0.41405029  0.67122916     0.16600
O1316       O  0.16598457  0.40623901  0.60545943    -0.60300
H1317       H  0.13929350  0.53939005  0.62854448     0.16600
O1318       O  0.18296387  0.54755985  0.69363349    -0.60400
H1319       H  0.15642188  0.55125410  0.70686759     0.43600
H1320       H  0.14720764  0.38957983  0.62163631     0.43600
C1321       C  0.88198118  0.46647724  0.59387766    -0.05500
C1322       C  0.84523541  0.48701882  0.58714264    -0.32900
C1323       C  0.81575150  0.49061896  0.61792330     0.36400
C1324       C  0.82225901  0.47321771  0.65619860    -0.05800
C1325       C  0.85769592  0.45041577  0.66180110    -0.32800
C1326       C  0.88703533  0.44689164  0.63138023     0.36300
H1327       H  0.84019812  0.50216176  0.55866205     0.16600
O1328       O  0.78165837  0.51298225  0.61096235    -0.60300
H1329       H  0.86361015  0.43671287  0.69086123     0.16600
O1330       O  0.92123146  0.42494236  0.63916438    -0.60400
H1331       H  0.91430637  0.39672853  0.63195237     0.43600
H1332       H  0.79009425  0.54152924  0.61403343     0.43600
C1333       C  0.03144318  0.60518581  0.33800047    -0.05500
C1334       C  0.99545955  0.62723443  0.33854990    -0.32900
C1335       C  0.99475725  0.66742979  0.32694158     0.36400
C1336       C  0.03018029  0.68608683  0.31324186    -0.05800
C1337       C  0.06606805  0.66371441  0.31078959    -0.32800
C1338       C  0.06702459  0.62348407  0.32402652     0.36300
H1339       H  0.96825647  0.61390872  0.35077272     0.16600
O1340       O  0.95913885  0.68844604  0.32895915    -0.60300
H1341       H  0.09316920  0.67754821  0.29901864     0.16600
O1342       O  0.10308957  0.60333930  0.32595031    -0.60400
H1343       H  0.10602966  0.58999947  0.29936164     0.43600
H1344       H  0.94551354  0.68337803  0.30283525     0.43600
C1345       C  0.03340431  0.34693917  0.60993652    -0.05500
C1346       C  0.05539510  0.36004793  0.64375286    -0.32900
C1347       C  0.05062839  0.34121748  0.68093218     0.36400
C1348       C  0.02280493  0.30978310  0.68460691    -0.05800
C1349       C  0.00272792  0.29506893  0.65010496    -0.32800
C1350       C  0.00838208  0.31311447  0.61272840     0.36300
H1351       H  0.07500756  0.38609113  0.64164215     0.16600
O1352       O  0.07242343  0.35422900  0.71356376    -0.60300
H1353       H  0.98148287  0.27034799  0.65241918     0.16600
O1354       O  0.98748077  0.29914734  0.57986521    -0.60400
H1355       H  0.96196059  0.31474914  0.57950638     0.43600
H1356       H  0.09925754  0.34134703  0.71066525     0.43600
C1357       C  0.01106447  0.60827408  0.59605184    -0.05500
C1358       C  0.97702481  0.60747453  0.62085834    -0.32900
C1359       C  0.97216119  0.63631202  0.65099616     0.36400
C1360       C  0.00194991  0.66594396  0.65669758    -0.05800
C1361       C  0.03537107  0.66750121  0.63091320    -0.32800
C1362       C  0.03994310  0.63892124  0.60040538     0.36300
H1363       H  0.95416925  0.58447051  0.61674883     0.16600
O1364       O  0.93774567  0.63617112  0.67388090    -0.60300
H1365       H  0.05834730  0.69034958  0.63508643     0.16600
O1366       O  0.07372678  0.63971577  0.57661989    -0.60400
H1367       H  0.06695802  0.65810295  0.55403432     0.43600
H1368       H  0.94178231  0.61448076  0.69406569     0.43600
C1369       C  0.96686632  0.39253407  0.15982205    -0.05500
C1370       C  0.94904759  0.35434715  0.15272511    -0.32900
C1371       C  0.95144170  0.32259539  0.18119717     0.36400
C1372       C  0.97163472  0.32820194  0.21815717    -0.05800
C1373       C  0.98786496  0.36690823  0.22597409    -0.32800
C1374       C  0.98602187  0.39845687  0.19739338     0.36300
H1375       H  0.93431262  0.34848836  0.12417740     0.16600
O1376       O  0.93690427  0.28524201  0.17103202    -0.60300
H1377       H  0.00493709  0.37177858  0.25340985     0.16600
O1378       O  0.00569167  0.43393623  0.20553471    -0.60400
H1379       H  0.03278431  0.43083560  0.19329912     0.43600
H1380       H  0.90949294  0.28414194  0.18282734     0.43600
C1381       C  0.96419581  0.21533521  0.32867914    -0.05500
C1382       C  0.95486027  0.17482611  0.32051310    -0.32900
C1383       C  0.95252213  0.14562701  0.35148976     0.36400
C1384       C  0.96021084  0.15601603  0.39246980    -0.05800
C1385       C  0.96663903  0.19730365  0.40087352    -0.32800
C1386       C  0.96851043  0.22652960  0.36967885     0.36300
H1387       H  0.95218077  0.16502384  0.28947300     0.16600
O1388       O  0.94368514  0.10661253  0.34081745    -0.60300
H1389       H  0.97214049  0.20686903  0.43159298     0.16600
O1390       O  0.97797636  0.26561983  0.37936136    -0.60400
H1391       H  0.95171717  0.27913297  0.38401673     0.43600
H1392       H  0.96953532  0.09488601  0.33140928     0.43600
C1393       C  0.08912982  0.27867082  0.28681542    -0.05500
C1394       C  0.09701518  0.26817188  0.32710994    -0.32900
C1395       C  0.08671100  0.29631750  0.35696407     0.36400
C1396       C  0.07946546  0.33696886  0.34565188    -0.05800
C1397       C  0.09055477  0.34862768  0.30635204    -0.32800
C1398       C  0.09951461  0.31894456  0.27767935     0.36300
H1399       H  0.10022211  0.23679169  0.33562227     0.16600
O1400       O  0.08229502  0.28345472  0.39599015    -0.60300
H1401       H  0.09087701  0.38006871  0.29743153     0.16600
O1402       O  0.11000020  0.33004577  0.23932637    -0.60400
H1403       H  0.13965805  0.33345131  0.24011896     0.43600
H1404       H  0.05595117  0.26942067  0.39678166     0.43600
loop_ 
_geom_bond_atom_site_label_1 
_geom_bond_atom_site_label_2 
_geom_bond_distance 
_geom_bond_site_symmetry_2 
_ccdc_geom_bond_type 
C1            C2   1.400   1_655  A
C1            C6   1.433       .  A
C1         C1381   1.512       .  S
C2            C3   1.408       .  A
C2            H7   1.082       .  S
C3            C4   1.403       .  A
C3         C1393   1.513       .  S
C4            C5   1.400   1_455  A
C4            H8   1.080       .  S
C5            C6   1.433       .  A
C5         C1372   1.513       .  S
C6            H9   1.082       .  S
O10         Zr46   2.438       .  S
O10          C21   1.293       .  A
O11         Zr45   2.384       .  S
O11          C22   1.283       .  A
O12         Zr18   2.511       .  S
O12          C23   1.306       .  A
O13         Zr18   2.488   1_655  S
O13          C24   1.303       .  A
O14         Zr48   2.450       .  S
O14          C24   1.296       .  A
O15         Zr47   2.425       .  S
O15          C23   1.288       .  A
O16         Zr18   2.447       .  S
O16          C22   1.294       .  A
O17         Zr18   2.425       .  S
O17          C21   1.290       .  A
Zr18         O19   2.359   1_455  S
Zr18         O20   2.329       .  S
Zr18         O28   2.368   1_455  S
Zr18         O26   2.340       .  S
O19         Zr45   2.344   1_655  S
O19         Zr48   2.356       .  S
O20         Zr46   2.338       .  S
O20         Zr47   2.333       .  S
C21        C1396   1.483       .  S
C22        C1345   1.454       .  S
C23        C1261   1.499       .  S
C24        C1252   1.512       .  S
H25          O26   0.965       .  S
O26         Zr45   2.345       .  S
O26         Zr47   2.338       .  S
H27          O28   0.965       .  S
O28         Zr46   2.362   1_655  S
O28         Zr48   2.377       .  S
O29         Zr45   2.422       .  S
O29          C52   1.289       .  A
O30         Zr46   2.467       .  S
O30          C53   1.296       .  A
O31         Zr47   2.437       .  S
O31          C54   1.290       .  A
O32         Zr48   2.487       .  S
O32          C55   1.301       .  A
O33         Zr48   2.455       .  S
O33          C56   1.297       .  A
O34         Zr47   2.423       .  S
O34          C57   1.288       .  A
O35         Zr49   2.458       .  S
O35          C58   1.295       .  A
O36         Zr49   2.463   1_655  S
O36          C59   1.297       .  A
O37         Zr47   2.440       .  S
O37          C58   1.291       .  A
O38         Zr48   2.494       .  S
O38          C59   1.303       .  A
O39         Zr45   2.455       .  S
O39          C54   1.295       .  A
O40         Zr46   2.488       .  S
O40          C57   1.302       .  A
O41         Zr46   2.503   1_655  S
O41          C56   1.305       .  A
O42         Zr45   2.468   1_655  S
O42          C55   1.298       .  A
O43         Zr49   2.409       .  S
O43          C52   1.286       .  A
O44         Zr49   2.372       .  S
O44          C53   1.280       .  A
Zr45         O51   2.339       .  S
Zr45         O63   2.325   1_455  S
Zr46         O50   2.356   1_455  S
Zr46         O61   2.354       .  S
Zr47         O51   2.338       .  S
Zr47         O61   2.348       .  S
Zr48         O50   2.353       .  S
Zr48         O63   2.340       .  S
Zr49         O50   2.347   1_455  S
Zr49         O51   2.333       .  S
Zr49         O63   2.333   1_455  S
Zr49         O61   2.343       .  S
C52        C1357   1.452       .  S
C53        C1333   1.454       .  S
C54        C1312   1.473       .  S
C55        C1321   1.513       .  S
C56        C1300   1.518       .  S
C57        C1285   1.487       .  S
C58        C1237   1.484       .  S
C59        C1273   1.517       .  S
H60          O61   0.966       .  S
H62          O63   0.965       .  S
C64          C65   1.412       .  A
C64          C69   1.402       .  A
C64        C1213   1.483       .  S
C65          C66   1.412       .  A
C65          H70   1.083       .  S
C66          C67   1.398       .  A
C66        C1225   1.472       .  S
C67          C68   1.388       .  A
C67          H71   1.085   1_655  S
C68          C69   1.393       .  A
C68        C1360   1.465   1_655  S
C69          H72   1.084       .  S
C73          C74   1.424       .  A
C73          C78   1.387   1_655  A
C73        C1204   1.486       .  S
C74          C75   1.429       .  A
C74          H79   1.082       .  S
C75          C76   1.410       .  A
C75        C1189   1.504       .  S
C76          C77   1.400   1_655  A
C76          H80   1.083   1_655  S
C77          C78   1.378       .  A
C77        C1348   1.466       .  S
C78          H81   1.087       .  S
C82          C83   1.393   1_655  A
C82          C87   1.426       .  A
C82        C1168   1.491       .  S
C83          C84   1.383       .  A
C83          H88   1.087       .  S
C84          C85   1.399       .  A
C84        C1336   1.464       .  S
C85          C86   1.409   1_455  A
C85          H89   1.084       .  S
C86          C87   1.429       .  A
C86        C1180   1.507       .  S
C87          H90   1.082       .  S
O91        Zr127   2.454       .  S
O91         C102   1.295       .  A
O92        Zr126   2.409       .  S
O92         C103   1.285       .  A
O93         Zr99   2.442       .  S
O93         C104   1.294       .  A
O94         Zr99   2.476   1_455  S
O94         C105   1.299       .  A
O95        Zr129   2.378       .  S
O95         C105   1.282       .  A
O96        Zr128   2.429       .  S
O96         C104   1.292       .  A
O97         Zr99   2.503       .  S
O97         C103   1.305       .  A
O98         Zr99   2.514       .  S
O98         C102   1.308       .  A
Zr99        O100   2.351   1_655  S
Zr99        O101   2.363       .  S
Zr99        O109   2.356   1_655  S
Zr99        O107   2.352       .  S
O100       Zr126   2.344   1_455  S
O100       Zr129   2.343       .  S
O101       Zr127   2.365       .  S
O101       Zr128   2.364       .  S
C102       C1384   1.529       .  S
C103       C1201   1.486       .  S
C104       C1141   1.481       .  S
C105       C1153   1.460       .  S
H106        O107   0.963       .  S
O107       Zr126   2.328       .  S
O107       Zr128   2.348       .  S
H108        O109   0.966       .  S
O109       Zr127   2.346   1_455  S
O109       Zr129   2.349       .  S
O110       Zr126   2.415   1_565  S
O110        C133   1.285       .  A
O111       Zr127   2.470   1_565  S
O111        C134   1.298       .  A
O112       Zr128   2.507       .  S
O112        C135   1.305       .  A
O113       Zr129   2.453       .  S
O113        C136   1.295       .  A
O114       Zr129   2.454       .  S
O114        C137   1.296       .  A
O115       Zr128   2.511       .  S
O115        C138   1.307       .  A
O116       Zr130   2.385       .  S
O116        C139   1.282       .  A
O117       Zr130   2.414   1_455  S
O117        C140   1.287       .  A
O118       Zr128   2.457   1_565  S
O118        C139   1.296       .  A
O119       Zr129   2.432   1_565  S
O119        C140   1.291       .  A
O120       Zr126   2.441       .  S
O120        C135   1.291       .  A
O121       Zr127   2.439       .  S
O121        C138   1.293       .  A
O122       Zr127   2.480   1_455  S
O122        C137   1.299       .  A
O123       Zr126   2.449   1_455  S
O123        C136   1.292       .  A
O124       Zr130   2.450       .  S
O124        C133   1.294       .  A
O125       Zr130   2.469       .  S
O125        C134   1.299       .  A
Zr126       O132   2.340   1_545  S
Zr126       O144   2.334   1_645  S
Zr127       O131   2.341   1_645  S
Zr127       O142   2.361   1_545  S
Zr128       O132   2.342   1_545  S
Zr128       O142   2.360   1_545  S
Zr129       O131   2.329   1_545  S
Zr129       O144   2.328   1_545  S
Zr130       O131   2.330   1_655  S
Zr130       O132   2.337       .  S
Zr130       O144   2.339   1_655  S
Zr130       O142   2.348       .  S
C133       C1228   1.461       .  S
C134       C1177   1.512       .  S
C135       C1072   1.502       .  S
C136       C1084   1.487       .  S
C137       C1093   1.503       .  S
C138       C1108   1.518       .  S
C139       C1132   1.460       .  S
C140       C1117   1.464       .  S
H141        O142   0.966       .  S
H143        O144   0.966       .  S
C145        C146   1.426       .  A
C145        C150   1.393       .  A
C145       C1264   1.492       .  S
C146        C147   1.430       .  A
C146        H151   1.082       .  S
C147        C148   1.413       .  A
C147       C1057   1.514       .  S
C148        C149   1.401       .  A
C148        H152   1.083       .  S
C149        C150   1.383       .  A
C149       C1156   1.472       .  S
C150        H153   1.087       .  S
C154        C155   1.401       .  A
C154        C159   1.424       .  A
C154       C1249   1.497       .  S
C155        C156   1.406       .  A
C155        H160   1.083       .  S
C156        C157   1.405       .  A
C156       C1144   1.513       .  S
C157        C158   1.400       .  A
C157        H161   1.081       .  S
C158        C159   1.422       .  A
C158       C1045   1.501       .  S
C159        H162   1.082       .  S
C163        C164   1.422       .  A
C163        C168   1.389       .  A
C163       C1033   1.489       .  S
C164        C165   1.428       .  A
C164        H169   1.082       .  S
C165        C166   1.417       .  A
C165       C1276   1.513       .  S
C166        C167   1.408       .  A
C166        H170   1.083       .  S
C167        C168   1.383       .  A
C167       C1129   1.481       .  S
C168        H171   1.087       .  S
C172        C173   1.421       .  A
C172        C177   1.403       .  A
C172       C1021   1.497       .  S
C173        C174   1.419       .  A
C173        H178   1.082       .  S
C174        C175   1.398       .  A
C174       C1240   1.485       .  S
C175        C176   1.393       .  A
C175        H179   1.085       .  S
C176        C177   1.396       .  A
C176       C1120   1.477       .  S
C177        H180   1.083       .  S
C181        C182   1.399   1_545  A
C181        C186   1.429       .  A
C181       C1105   1.506       .  S
C182        C183   1.406       .  A
C182        H187   1.083       .  S
C183        C184   1.406       .  A
C183       C1009   1.514       .  S
C184        C185   1.402   1_565  A
C184        H188   1.080       .  S
C185        C186   1.429       .  A
C185       C1000   1.509       .  S
C186        H189   1.082       .  S
O190       Zr226   2.502       .  S
O190        C201   1.304       .  A
O191       Zr225   2.449       .  S
O191        C202   1.293       .  A
O192       Zr198   2.383       .  S
O192        C203   1.282       .  A
O193       Zr198   2.434       .  S
O193        C204   1.292       .  A
O194       Zr228   2.422       .  S
O194        C204   1.289       .  A
O195       Zr227   2.456       .  S
O195        C203   1.295       .  A
O196       Zr198   2.456       .  S
O196        C202   1.296       .  A
O197       Zr198   2.441   1_545  S
O197        C201   1.294       .  A
Zr198       O199   2.331       .  S
Zr198       O200   2.345   1_565  S
Zr198       O208   2.329   1_565  S
Zr198       O206   2.346       .  S
O199       Zr225   2.336       .  S
O199       Zr228   2.335       .  S
O200       Zr226   2.348       .  S
O200       Zr227   2.355   1_545  S
C201       C1060   1.513       .  S
C202       C1024   1.494       .  S
C203        C961   1.453       .  S
C204        C985   1.472       .  S
H205        O206   0.966       .  S
O206       Zr225   2.344       .  S
O206       Zr227   2.355       .  S
H207        O208   0.965       .  S
O208       Zr226   2.344       .  S
O208       Zr228   2.331   1_545  S
O209       Zr225   2.432       .  S
O209        C232   1.290       .  A
O210       Zr226   2.458       .  S
O210        C233   1.296       .  A
O211       Zr227   2.505       .  S
O211        C234   1.305       .  A
O212       Zr228   2.460       .  S
O212        C235   1.297       .  A
O213       Zr228   2.466   1_545  S
O213        C236   1.298       .  A
O214       Zr227   2.504   1_545  S
O214        C237   1.306       .  A
O215       Zr229   2.422       .  S
O215        C238   1.289       .  A
O216       Zr229   2.462       .  S
O216        C239   1.295       .  A
O217       Zr227   2.439       .  S
O217        C238   1.294       .  A
O218       Zr228   2.374       .  S
O218        C239   1.281       .  A
O219       Zr225   2.415       .  S
O219        C234   1.287       .  A
O220       Zr226   2.446       .  S
O220        C237   1.294       .  A
O221       Zr226   2.480       .  S
O221        C236   1.300       .  A
O222       Zr225   2.433       .  S
O222        C235   1.289       .  A
O223       Zr229   2.491       .  S
O223        C232   1.302       .  A
O224       Zr229   2.497   1_545  S
O224        C233   1.304       .  A
Zr225       O231   2.332       .  S
Zr225       O243   2.349       .  S
Zr226       O230   2.357       .  S
Zr226       O241   2.377       .  S
Zr227       O231   2.329       .  S
Zr227       O241   2.363   1_565  S
Zr228       O230   2.350   1_565  S
Zr228       O243   2.345       .  S
Zr229       O230   2.355   1_565  S
Zr229       O231   2.334       .  S
Zr229       O243   2.350       .  S
Zr229       O241   2.366   1_565  S
C232       C1036   1.497       .  S
C233       C1048   1.512       .  S
C234        C928   1.499       .  S
C235        C949   1.481       .  S
C236        C937   1.506       .  S
C237        C916   1.519       .  S
C238       C1012   1.481       .  S
C239        C973   1.451       .  S
H240        O241   0.964       .  S
H242        O243   0.966       .  S
C244        C245   1.401       .  A
C244        C249   1.414       .  A
C244        C901   1.480       .  S
C245        C246   1.399       .  A
C245        H250   1.084       .  S
C246        C247   1.398       .  A
C246        C988   1.485       .  S
C247        C248   1.403       .  A
C247        H251   1.083       .  S
C248        C249   1.414       .  A
C248       C1081   1.490       .  S
C249        H252   1.083       .  S
C253        C254   1.391       .  A
C253        C258   1.427   1_565  A
C253       C1069   1.493   1_565  S
C254        C255   1.382       .  A
C254        H259   1.087       .  S
C255        C256   1.398       .  A
C255        C976   1.463       .  S
C256        C257   1.411   1_565  A
C256        H260   1.084       .  S
C257        C258   1.430       .  A
C257        C889   1.509       .  S
C258        H261   1.082       .  S
C262        C263   1.388       .  A
C262        C267   1.425   1_565  A
C262        C877   1.489   1_565  S
C263        C264   1.379       .  A
C263        H268   1.088       .  S
C264        C265   1.402       .  A
C264        C964   1.466       .  S
C265        C266   1.414       .  A
C265        H269   1.083       .  S
C266        C267   1.429   1_565  A
C266       C1096   1.509   1_565  S
C267        H270   1.082       .  S
O271       Zr307   2.464       .  S
O271        C282   1.297       .  A
O272       Zr306   2.443       .  S
O272        C283   1.291       .  A
O273       Zr279   2.450       .  S
O273        C284   1.295       .  A
O274       Zr279   2.482   1_565  S
O274        C285   1.300       .  A
O275       Zr309   2.369       .  S
O275        C285   1.280       .  A
O276       Zr308   2.429       .  S
O276        C284   1.292       .  A
O277       Zr279   2.485       .  S
O277        C283   1.301       .  A
O278       Zr279   2.493       .  S
O278        C282   1.303       .  A
Zr279       O280   2.347   1_545  S
Zr279       O281   2.365       .  S
Zr279       O289   2.353   1_545  S
Zr279       O287   2.353       .  S
O280       Zr306   2.340   1_565  S
O280       Zr309   2.344       .  S
O281       Zr307   2.357       .  S
O281       Zr308   2.364       .  S
C282        C997   1.516       .  S
C283        C880   1.492       .  S
C284        C865   1.483       .  S
C285        C853   1.460       .  S
H286        O287   0.964       .  S
O287       Zr306   2.331       .  S
O287       Zr308   2.365       .  S
H288        O289   0.966       .  S
O289       Zr307   2.346   1_565  S
O289       Zr309   2.355       .  S
O290       Zr306   2.431   1_556  S
O290        C313   1.289       .  A
O291       Zr307   2.474   1_556  S
O291        C314   1.298       .  A
O292       Zr308   2.486       .  S
O292        C315   1.302       .  A
O293       Zr309   2.464       .  S
O293        C316   1.297       .  A
O294       Zr309   2.469       .  S
O294        C317   1.299       .  A
O295       Zr308   2.518       .  S
O295        C318   1.308       .  A
O296       Zr310   2.375       .  S
O296        C319   1.281       .  A
O297       Zr310   2.414   1_565  S
O297        C320   1.288       .  A
O298       Zr308   2.473   1_556  S
O298        C319   1.298       .  A
O299       Zr309   2.436   1_556  S
O299        C320   1.291       .  A
O300       Zr306   2.432       .  S
O300        C315   1.289       .  A
O301       Zr307   2.428       .  S
O301        C318   1.290       .  A
O302       Zr307   2.459   1_565  S
O302        C317   1.296       .  A
O303       Zr306   2.435   1_565  S
O303        C316   1.290       .  A
O304       Zr310   2.458       .  S
O304        C313   1.295       .  A
O305       Zr310   2.460       .  S
O305        C314   1.297       .  A
Zr306       O312   2.344   1_554  S
Zr306       O324   2.343   1_544  S
Zr307       O311   2.348   1_544  S
Zr307       O322   2.354   1_554  S
Zr308       O312   2.345   1_554  S
Zr308       O322   2.347   1_554  S
Zr309       O311   2.329   1_554  S
Zr309       O324   2.331   1_554  S
Zr310       O311   2.329   1_545  S
Zr310       O312   2.336       .  S
Zr310       O324   2.333   1_545  S
Zr310       O322   2.349       .  S
C313        C904   1.473       .  S
C314        C892   1.507       .  S
C315        C817   1.487       .  S
C316        C793   1.484       .  S
C317        C805   1.507       .  S
C318        C781   1.522       .  S
C319        C829   1.462       .  S
C320        C841   1.467       .  S
H321        O322   0.966       .  S
H323        O324   0.966       .  S
C325        C326   1.423       .  A
C325        C330   1.400       .  A
C325        C913   1.500       .  S
C326        C327   1.423       .  A
C326        H331   1.082       .  S
C327        C328   1.399       .  A
C327        C772   1.498       .  S
C328        C329   1.403       .  A
C328        H332   1.080       .  S
C329        C330   1.409       .  A
C329        C868   1.513       .  S
C330        H333   1.082       .  S
C334        C335   1.392       .  A
C334        C339   1.426       .  A
C334        C925   1.489       .  S
C335        C336   1.381       .  A
C335        H340   1.087       .  S
C336        C337   1.397       .  A
C336        C856   1.467       .  S
C337        C338   1.409       .  A
C337        H341   1.084       .  S
C338        C339   1.429       .  A
C338        C760   1.503       .  S
C339        H342   1.082       .  S
C343        C344   1.402       .  A
C343        C348   1.418       .  A
C343        C952   1.484       .  S
C344        C345   1.394       .  A
C344        H349   1.084       .  S
C345        C346   1.390       .  A
C345        C844   1.476       .  S
C346        C347   1.400       .  A
C346        H350   1.084       .  S
C347        C348   1.418       .  A
C347        C745   1.489       .  S
C348        H351   1.083       .  S
C352        C353   1.413       .  A
C352        C357   1.426       .  A
C352        C940   1.504       .  S
C353        C354   1.404       .  A
C353        H358   1.084       .  S
C354        C355   1.383       .  A
C354        C832   1.473       .  S
C355        C356   1.389       .  A
C355        H359   1.087       .  S
C356        C357   1.421       .  A
C356        C733   1.486       .  S
C357        H360   1.082       .  S
O361       Zr397   2.452       .  S
O361        C372   1.295       .  A
O362       Zr396   2.430       .  S
O362        C373   1.289       .  A
O363       Zr369   2.439   1_455  S
O363        C374   1.291       .  A
O364       Zr369   2.421       .  S
O364        C375   1.290       .  A
O365       Zr399   2.431       .  S
O365        C375   1.291       .  A
O366       Zr398   2.387       .  S
O366        C374   1.283       .  A
O367       Zr369   2.503       .  S
O367        C373   1.305       .  A
O368       Zr369   2.506       .  S
O368        C372   1.306       .  A
Zr369       O370   2.331       .  S
Zr369       O371   2.350   1_655  S
Zr369       O379   2.366       .  S
Zr369       O377   2.354   1_655  S
O370       Zr396   2.330       .  S
O370       Zr399   2.335       .  S
O371       Zr397   2.352   1_455  S
O371       Zr398   2.344       .  S
C372       C1369   1.517       .  S
C373       C1165   1.499       .  S
C374        C709   1.442       .  S
C375        C721   1.480       .  S
H376        O377   0.966       .  S
O377       Zr396   2.347   1_455  S
O377       Zr398   2.347       .  S
H378        O379   0.966       .  S
O379       Zr397   2.370       .  S
O379       Zr399   2.363       .  S
O380       Zr396   2.439   1_556  S
O380        C403   1.291       .  A
O381       Zr397   2.479   1_556  S
O381        C404   1.299       .  A
O382       Zr398   2.460       .  S
O382        C405   1.296       .  A
O383       Zr399   2.493       .  S
O383        C406   1.304       .  A
O384       Zr399   2.508       .  S
O384        C407   1.307       .  A
O385       Zr398   2.462       .  S
O385        C408   1.298       .  A
O386       Zr400   2.423   1_455  S
O386        C409   1.288       .  A
O387       Zr400   2.355       .  S
O387        C410   1.278       .  A
O388       Zr398   2.406   1_556  S
O388        C409   1.285       .  A
O389       Zr399   2.462   1_556  S
O389        C410   1.295       .  A
O390       Zr396   2.439   1_455  S
O390        C405   1.290       .  A
O391       Zr397   2.463   1_455  S
O391        C408   1.296       .  A
O392       Zr397   2.438       .  S
O392        C407   1.293       .  A
O393       Zr396   2.430       .  S
O393        C406   1.290       .  A
O394       Zr400   2.455       .  S
O394        C403   1.295       .  A
O395       Zr400   2.456       .  S
O395        C404   1.296       .  A
Zr396       O402   2.338   1_654  S
Zr396       O414   2.346   1_554  S
Zr397       O401   2.345   1_554  S
Zr397       O412   2.341   1_654  S
Zr398       O402   2.333   1_554  S
Zr398       O412   2.329   1_554  S
Zr399       O401   2.348   1_554  S
Zr399       O414   2.353   1_554  S
Zr400       O401   2.346       .  S
Zr400       O402   2.326   1_655  S
Zr400       O414   2.344       .  S
Zr400       O412   2.324   1_655  S
C403       C1216   1.481       .  S
C404       C1192   1.504       .  S
C405        C664   1.477   1_554  S
C406        C637   1.499       .  S
C407        C649   1.518       .  S
C408        C673   1.500       .  S
C409        C697   1.450       .  S
C410        C685   1.448       .  S
H411        O412   0.965       .  S
H413        O414   0.966       .  S
C415        C416   1.399       .  A
C415        C420   1.426       .  A
C415       C1297   1.505       .  S
C416        C417   1.406       .  A
C416        H421   1.080       .  S
C417        C418   1.405       .  A
C417        C724   1.512       .  S
C418        C419   1.399       .  A
C418        H422   1.083       .  S
C419        C420   1.427       .  A
C419        C625   1.501       .  S
C420        H423   1.082       .  S
C424        C425   1.389       .  A
C424        C429   1.423       .  A
C424       C1288   1.485       .  S
C425        C426   1.379       .  A
C425        H430   1.088       .  S
C426        C427   1.396       .  A
C426        C712   1.458       .  S
C427        C428   1.411       .  A
C427        H431   1.083       .  S
C428        C429   1.429       .  A
C428        C613   1.506       .  S
C429        H432   1.082       .  S
C433        C434   1.418       .  A
C433        C438   1.396       .  A
C433       C1309   1.484       .  S
C434        C435   1.419       .  A
C434        H439   1.083       .  S
C435        C436   1.401       .  A
C435        C604   1.486       .  S
C436        C437   1.392       .  A
C436        H440   1.085       .  S
C437        C438   1.389       .  A
C437        C700   1.464       .  S
C438        H441   1.085       .  S
C442        C443   1.408       .  A
C442        C447   1.432       .  A
C442       C1324   1.509       .  S
C443        C444   1.397       .  A
C443        H448   1.084       .  S
C444        C445   1.381       .  A
C444        C688   1.463       .  S
C445        C446   1.389       .  A
C445        H449   1.088       .  S
C446        C447   1.429       .  A
C446        C592   1.492       .  S
C447        H450   1.082       .  S
C451        C452   1.410       .  A
C451        C456   1.426   1_556  A
C451        C676   1.499   1_556  S
C452        C453   1.395       .  A
C452        H457   1.084       .  S
C453        C454   1.382       .  A
C453        C577   1.457       .  S
C454        C455   1.388       .  A
C454        H458   1.088       .  S
C455        C456   1.421   1_556  A
C455        C820   1.485   1_556  S
C456        H459   1.082       .  S
O460       Zr496   2.451       .  S
O460        C471   1.295       .  A
O461       Zr495   2.429       .  S
O461        C472   1.289       .  A
O462       Zr468   2.451       .  S
O462        C473   1.293       .  A
O463       Zr468   2.419       .  S
O463        C474   1.290       .  A
O464       Zr498   2.434       .  S
O464        C474   1.292       .  A
O465       Zr497   2.370       .  S
O465        C473   1.280       .  A
O466       Zr468   2.490       .  S
O466        C472   1.302       .  A
O467       Zr468   2.497   1_554  S
O467        C471   1.304       .  A
Zr468       O469   2.334       .  S
Zr468       O470   2.353   1_556  S
Zr468       O478   2.356   1_556  S
Zr468       O476   2.349       .  S
O469       Zr495   2.332       .  S
O469       Zr498   2.335       .  S
O470       Zr496   2.345       .  S
O470       Zr497   2.348   1_554  S
C471        C769   1.512       .  S
C472        C736   1.493       .  S
C473        C580   1.442       .  S
C474        C544   1.480       .  S
H475        O476   0.966       .  S
O476       Zr495   2.342       .  S
O476       Zr497   2.345       .  S
H477        O478   0.965       .  S
O478       Zr496   2.374       .  S
O478       Zr498   2.363   1_554  S
O479       Zr495   2.438       .  S
O479        C502   1.291       .  A
O480       Zr496   2.475       .  S
O480        C503   1.299       .  A
O481       Zr497   2.456       .  S
O481        C504   1.296       .  A
O482       Zr498   2.500       .  S
O482        C505   1.304       .  A
O483       Zr498   2.501   1_554  S
O483        C506   1.306       .  A
O484       Zr497   2.460   1_554  S
O484        C507   1.297       .  A
O485       Zr499   2.413       .  S
O485        C508   1.287       .  A
O486       Zr499   2.390       .  S
O486        C509   1.283       .  A
O487       Zr497   2.431       .  S
O487        C508   1.291       .  A
O488       Zr498   2.462       .  S
O488        C509   1.295       .  A
O489       Zr495   2.443       .  S
O489        C504   1.291       .  A
O490       Zr496   2.487       .  S
O490        C507   1.301       .  A
O491       Zr496   2.438       .  S
O491        C506   1.293       .  A
O492       Zr495   2.425       .  S
O492        C505   1.288       .  A
O493       Zr499   2.451       .  S
O493        C502   1.295       .  A
O494       Zr499   2.460   1_554  S
O494        C503   1.297       .  A
Zr495       O501   2.338       .  S
Zr495       O513   2.343       .  S
Zr496       O500   2.358       .  S
Zr496       O511   2.343       .  S
Zr497       O501   2.335       .  S
Zr497       O511   2.326   1_556  S
Zr498       O500   2.358   1_556  S
Zr498       O513   2.342       .  S
Zr499       O500   2.344   1_556  S
Zr499       O501   2.338       .  S
Zr499       O513   2.340       .  S
Zr499       O511   2.335   1_556  S
C502        C748   1.485       .  S
C503        C757   1.506       .  S
C504        C601   1.483       .  S
C505        C589   1.494       .  S
C506        C628   1.513       .  S
C507        C616   1.511       .  S
C508        C553   1.462       .  S
C509        C565   1.456       .  S
H510        O511   0.965       .  S
H512        O513   0.965       .  S
C514        C515   1.426       .  A
C514        C519   1.409   1_554  A
C514        C808   1.505       .  S
C515        C516   1.424   1_554  A
C515        H520   1.082       .  S
C516        C517   1.395       .  A
C516        C640   1.490   1_556  S
C517        C518   1.385       .  A
C517        H521   1.087       .  S
C518        C519   1.397       .  A
C518        C568   1.465       .  S
C519        H522   1.083       .  S
C523        C524   1.416       .  A
C523        C528   1.402       .  A
C523        C661   1.488       .  S
C524        C525   1.415   1_556  A
C524        H529   1.083   1_556  S
C525        C526   1.402   1_554  A
C525        C796   1.485       .  S
C526        C527   1.392       .  A
C526        H530   1.085       .  S
C527        C528   1.394       .  A
C527        C556   1.470       .  S
C528        H531   1.085       .  S
C532        C533   1.424       .  A
C532        C537   1.400   1_554  A
C532        C784   1.501       .  S
C533        C534   1.424       .  A
C533        H538   1.082       .  S
C534        C535   1.399   1_554  A
C534        C652   1.501       .  S
C535        C536   1.407       .  A
C535        H539   1.082       .  S
C536        C537   1.408       .  A
C536        C541   1.512       .  S
C537        H540   1.080       .  S
C541        C542   1.409       .  A
C541        C546   1.409       .  A
C542        C543   1.403       .  A
C542        H547   1.082       .  S
C543        C544   1.416       .  A
C543        O548   1.372       .  S
C544        C545   1.412       .  A
C545        C546   1.398       .  A
C545        H549   1.083       .  S
C546        O550   1.370       .  S
O548        H552   0.992       .  S
O550        H551   0.991       .  S
C553        C554   1.403       .  A
C553        C558   1.404   1_556  A
C554        C555   1.398       .  A
C554        H559   1.084       .  S
C555        C556   1.407       .  A
C555        O560   1.372       .  S
C556        C557   1.403   1_556  A
C557        C558   1.394       .  A
C557        H561   1.084       .  S
C558        O562   1.372       .  S
O560        H564   0.992       .  S
O562        H563   0.992       .  S
C565        C566   1.406       .  A
C565        C570   1.401       .  A
C566        C567   1.404       .  A
C566        H571   1.084       .  S
C567        C568   1.405       .  A
C567        O572   1.371       .  S
C568        C569   1.401       .  A
C569        C570   1.388       .  A
C569        H573   1.084   1_556  S
C570        O574   1.371   1_556  S
O572        H576   0.991       .  S
O574        H575   0.992       .  S
C577        C578   1.402   1_556  A
C577        C582   1.403       .  A
C578        C579   1.389       .  A
C578        H583   1.084       .  S
C579        C580   1.404   1_554  A
C579        O584   1.373       .  S
C580        C581   1.402       .  A
C581        C582   1.397       .  A
C581        H585   1.084       .  S
C582        O586   1.371       .  S
O584        H588   0.992       .  S
O586        H587   0.992       .  S
C589        C590   1.403       .  A
C589        C594   1.412       .  A
C590        C591   1.410       .  A
C590        H595   1.083       .  S
C591        C592   1.416       .  A
C591        O596   1.372       .  S
C592        C593   1.409       .  A
C593        C594   1.409       .  A
C593        H597   1.084       .  S
C594        O598   1.372       .  S
O596        H600   0.991       .  S
O598        H599   0.991       .  S
C601        C602   1.402       .  A
C601        C606   1.411       .  A
C602        C603   1.401       .  A
C602        H607   1.084       .  S
C603        C604   1.412       .  A
C603        O608   1.373       .  S
C604        C605   1.405       .  A
C605        C606   1.408       .  A
C605        H609   1.083       .  S
C606        O610   1.370       .  S
O608        H612   0.992       .  S
O610        H611   0.992       .  S
C613        C614   1.407       .  A
C613        C618   1.415       .  A
C614        C615   1.416       .  A
C614        H619   1.083       .  S
C615        C616   1.417       .  A
C615        O620   1.370       .  S
C616        C617   1.409       .  A
C617        C618   1.410       .  A
C617        H621   1.084       .  S
C618        O622   1.374       .  S
O620        H624   0.992       .  S
O622        H623   0.992       .  S
C625        C626   1.411       .  A
C625        C630   1.407       .  A
C626        C627   1.414       .  A
C626        H631   1.084       .  S
C627        C628   1.413       .  A
C627        O632   1.370       .  S
C628        C629   1.415       .  A
C629        C630   1.409       .  A
C629        H633   1.083       .  S
C630        O634   1.372       .  S
O632        H636   0.992       .  S
O634        H635   0.992       .  S
C637        C638   1.402       .  A
C637        C642   1.416   1_554  A
C638        C639   1.408       .  A
C638        H643   1.079       .  S
C639        C640   1.414       .  A
C639        O644   1.373       .  S
C640        C641   1.405   1_554  A
C641        C642   1.409       .  A
C641        H645   1.083       .  S
C642        O646   1.371       .  S
O644        H648   0.992       .  S
O646        H647   0.992       .  S
C649        C650   1.417       .  A
C649        C654   1.413       .  A
C650        C651   1.410       .  A
C650        H655   1.083       .  S
C651        C652   1.407       .  A
C651        O656   1.372       .  S
C652        C653   1.411       .  A
C653        C654   1.414       .  A
C653        H657   1.084       .  S
C654        O658   1.369       .  S
O656        H660   0.992       .  S
O658        H659   0.992   1_554  S
C661        C662   1.408       .  A
C661        C666   1.409   1_556  A
C662        C663   1.403       .  A
C662        H667   1.084       .  S
C663        C664   1.406       .  A
C663        O668   1.373       .  S
C664        C665   1.404   1_556  A
C665        C666   1.407       .  A
C665        H669   1.084       .  S
C666        O670   1.372       .  S
O668        H672   0.992       .  S
O670        H671   0.992       .  S
C673        C674   1.412       .  A
C673        C678   1.410       .  A
C674        C675   1.414   1_554  A
C674        H679   1.082   1_554  S
C675        C676   1.411   1_556  A
C675        O680   1.371       .  S
C676        C677   1.406       .  A
C677        C678   1.403       .  A
C677        H681   1.084       .  S
C678        O682   1.372       .  S
O680        H684   0.992       .  S
O682        H683   0.992       .  S
C685        C686   1.401       .  A
C685        C690   1.402       .  A
C686        C687   1.385       .  A
C686        H691   1.084       .  S
C687        C688   1.406       .  A
C687        O692   1.373       .  S
C688        C689   1.407       .  A
C689        C690   1.399       .  A
C689        H693   1.083       .  S
C690        O694   1.372       .  S
O692        H696   0.992       .  S
O694        H695   0.992       .  S
C697        C698   1.397       .  A
C697        C702   1.405       .  A
C698        C699   1.392       .  A
C698        H703   1.084       .  S
C699        C700   1.409       .  A
C699        O704   1.372       .  S
C700        C701   1.401       .  A
C701        C702   1.393       .  A
C701        H705   1.084       .  S
C702        O706   1.373       .  S
O704        H708   0.992       .  S
O706        H707   0.992       .  S
C709        C710   1.394       .  A
C709        C714   1.407       .  A
C710        C711   1.386       .  A
C710        H715   1.085       .  S
C711        C712   1.408       .  A
C711        O716   1.372       .  S
C712        C713   1.400       .  A
C713        C714   1.398       .  A
C713        H717   1.083       .  S
C714        O718   1.372       .  S
O716        H720   0.992       .  S
O718        H719   0.992       .  S
C721        C722   1.411       .  A
C721        C726   1.417       .  A
C722        C723   1.398       .  A
C722        H727   1.083       .  S
C723        C724   1.410       .  A
C723        O728   1.372       .  S
C724        C725   1.408       .  A
C725        C726   1.401       .  A
C725        H729   1.082       .  S
C726        O730   1.371       .  S
O728        H732   0.992       .  S
O730        H731   0.992       .  S
C733        C734   1.406       .  A
C733        C738   1.415       .  A
C734        C735   1.407       .  A
C734        H739   1.084       .  S
C735        C736   1.412       .  A
C735        O740   1.372       .  S
C736        C737   1.404       .  A
C737        C738   1.408       .  A
C737        H741   1.082       .  S
C738        O742   1.372       .  S
O740        H744   0.991       .  S
O742        H743   0.991       .  S
C745        C746   1.404       .  A
C745        C750   1.415       .  A
C746        C747   1.408       .  A
C746        H751   1.083       .  S
C747        C748   1.414       .  A
C747        O752   1.371       .  S
C748        C749   1.402       .  A
C749        C750   1.395       .  A
C749        H753   1.084       .  S
C750        O754   1.372       .  S
O752        H756   0.992       .  S
O754        H755   0.991       .  S
C757        C758   1.413       .  A
C757        C762   1.412       .  A
C758        C759   1.418       .  A
C758        H763   1.083       .  S
C759        C760   1.413       .  A
C759        O764   1.371       .  S
C760        C761   1.406       .  A
C761        C762   1.405       .  A
C761        H765   1.084       .  S
C762        O766   1.371       .  S
O764        H768   0.992       .  S
O766        H767   0.991       .  S
C769        C770   1.407       .  A
C769        C774   1.421       .  A
C770        C771   1.412       .  A
C770        H775   1.083       .  S
C771        C772   1.415       .  A
C771        O776   1.372       .  S
C772        C773   1.402       .  A
C773        C774   1.411       .  A
C773        H777   1.084       .  S
C774        O778   1.371       .  S
O776        H780   0.991       .  S
O778        H779   0.992       .  S
C781        C782   1.411       .  A
C781        C786   1.427       .  A
C782        C783   1.418       .  A
C782        H787   1.083       .  S
C783        C784   1.415       .  A
C783        O788   1.372       .  S
C784        C785   1.399       .  A
C785        C786   1.408       .  A
C785        H789   1.084       .  S
C786        O790   1.372       .  S
O788        H792   0.992   1_554  S
O790        H791   0.991       .  S
C793        C794   1.402       .  A
C793        C798   1.413   1_554  A
C794        C795   1.399       .  A
C794        H799   1.084       .  S
C795        C796   1.411       .  A
C795        O800   1.372       .  S
C796        C797   1.403   1_554  A
C797        C798   1.408       .  A
C797        H801   1.084       .  S
C798        O802   1.372       .  S
O800        H804   0.992       .  S
O802        H803   0.992       .  S
C805        C806   1.406       .  A
C805        C810   1.419       .  A
C806        C807   1.407       .  A
C806        H811   1.084       .  S
C807        C808   1.414       .  A
C807        O812   1.374       .  S
C808        C809   1.406       .  A
C809        C810   1.414       .  A
C809        H813   1.083   1_554  S
C810        O814   1.371       .  S
O812        H816   0.992       .  S
O814        H815   0.991   1_554  S
C817        C818   1.406   1_554  A
C817        C822   1.407       .  A
C818        C819   1.406       .  A
C818        H823   1.084       .  S
C819        C820   1.413   1_556  A
C819        O824   1.373       .  S
C820        C821   1.409       .  A
C821        C822   1.406       .  A
C821        H825   1.084       .  S
C822        O826   1.371       .  S
O824        H828   0.992       .  S
O826        H827   0.992       .  S
C829        C830   1.410       .  A
C829        C834   1.400       .  A
C830        C831   1.399       .  A
C830        H835   1.084       .  S
C831        C832   1.400       .  A
C831        O836   1.371       .  S
C832        C833   1.410       .  A
C833        C834   1.393       .  A
C833        H837   1.084       .  S
C834        O838   1.372       .  S
O836        H840   0.992       .  S
O838        H839   0.992       .  S
C841        C842   1.403       .  A
C841        C846   1.406       .  A
C842        C843   1.394       .  A
C842        H847   1.084       .  S
C843        C844   1.408       .  A
C843        O848   1.373       .  S
C844        C845   1.406       .  A
C845        C846   1.397       .  A
C845        H849   1.084       .  S
C846        O850   1.372       .  S
O848        H852   0.992       .  S
O850        H851   0.992       .  S
C853        C854   1.403       .  A
C853        C858   1.405       .  A
C854        C855   1.389       .  A
C854        H859   1.085       .  S
C855        C856   1.405       .  A
C855        O860   1.373       .  S
C856        C857   1.405       .  A
C857        C858   1.404       .  A
C857        H861   1.083       .  S
C858        O862   1.371       .  S
O860        H864   0.992       .  S
O862        H863   0.992       .  S
C865        C866   1.412       .  A
C865        C870   1.417       .  A
C866        C867   1.402       .  A
C866        H871   1.083       .  S
C867        C868   1.411       .  A
C867        O872   1.371       .  S
C868        C869   1.406       .  A
C869        C870   1.401       .  A
C869        H873   1.082       .  S
C870        O874   1.370       .  S
O872        H876   0.991       .  S
O874        H875   0.990       .  S
C877        C878   1.409   1_545  A
C877        C882   1.416       .  A
C878        C879   1.408       .  A
C878        H883   1.084       .  S
C879        C880   1.410   1_565  A
C879        O884   1.372       .  S
C880        C881   1.403       .  A
C881        C882   1.408       .  A
C881        H885   1.083       .  S
C882        O886   1.372       .  S
O884        H888   0.992       .  S
O886        H887   0.991       .  S
C889        C890   1.409       .  A
C889        C894   1.412       .  A
C890        C891   1.405       .  A
C890        H895   1.084       .  S
C891        C892   1.413       .  A
C891        O896   1.372       .  S
C892        C893   1.412       .  A
C893        C894   1.417       .  A
C893        H897   1.082   1_545  S
C894        O898   1.370   1_545  S
O896        H900   0.992       .  S
O898        H899   0.992   1_565  S
C901        C902   1.405   1_545  A
C901        C906   1.409       .  A
C902        C903   1.400       .  A
C902        H907   1.084       .  S
C903        C904   1.405   1_565  A
C903        O908   1.372       .  S
C904        C905   1.404       .  A
C905        C906   1.405       .  A
C905        H909   1.084       .  S
C906        O910   1.371       .  S
O908        H912   0.992       .  S
O910        H911   0.992       .  S
C913        C914   1.400       .  A
C913        C918   1.415       .  A
C914        C915   1.408       .  A
C914        H919   1.084       .  S
C915        C916   1.424       .  A
C915        O920   1.371       .  S
C916        C917   1.412       .  A
C917        C918   1.415       .  A
C917        H921   1.083       .  S
C918        O922   1.371       .  S
O920        H924   0.992       .  S
O922        H923   0.991       .  S
C925        C926   1.404       .  A
C925        C930   1.417       .  A
C926        C927   1.409       .  A
C926        H931   1.084       .  S
C927        C928   1.417       .  A
C927        O932   1.372       .  S
C928        C929   1.403       .  A
C929        C930   1.407       .  A
C929        H933   1.082       .  S
C930        O934   1.371       .  S
O932        H936   0.992       .  S
O934        H935   0.991       .  S
C937        C938   1.408       .  A
C937        C942   1.414       .  A
C938        C939   1.411       .  A
C938        H943   1.084       .  S
C939        C940   1.413       .  A
C939        O944   1.371       .  S
C940        C941   1.405       .  A
C941        C942   1.413       .  A
C941        H945   1.083       .  S
C942        O946   1.368       .  S
O944        H948   0.992       .  S
O946        H947   0.992       .  S
C949        C950   1.401       .  A
C949        C954   1.413       .  A
C950        C951   1.398       .  A
C950        H955   1.084       .  S
C951        C952   1.410       .  A
C951        O956   1.371       .  S
C952        C953   1.405       .  A
C953        C954   1.409       .  A
C953        H957   1.083       .  S
C954        O958   1.372       .  S
O956        H960   0.992       .  S
O958        H959   0.992       .  S
C961        C962   1.401   1_565  A
C961        C966   1.405       .  A
C962        C963   1.391       .  A
C962        H967   1.085       .  S
C963        C964   1.407   1_545  A
C963        O968   1.372       .  S
C964        C965   1.405       .  A
C965        C966   1.399       .  A
C965        H969   1.084       .  S
C966        O970   1.372       .  S
O968        H972   0.992       .  S
O970        H971   0.992       .  S
C973        C974   1.399   1_565  A
C973        C978   1.406       .  A
C974        C975   1.387       .  A
C974        H979   1.085       .  S
C975        C976   1.406   1_545  A
C975        O980   1.373       .  S
C976        C977   1.405       .  A
C977        C978   1.402       .  A
C977        H981   1.083       .  S
C978        O982   1.371       .  S
O980        H984   0.992       .  S
O982        H983   0.992       .  S
C985        C986   1.401   1_565  A
C985        C990   1.408       .  A
C986        C987   1.398       .  A
C986        H991   1.084       .  S
C987        C988   1.413       .  A
C987        O992   1.373       .  S
C988        C989   1.405   1_545  A
C989        C990   1.398       .  A
C989        H993   1.083       .  S
C990        O994   1.372       .  S
O992        H996   0.992       .  S
O994        H995   0.992       .  S
C997        C998   1.408       .  A
C997       C1002   1.420       .  A
C998        C999   1.413       .  A
C998       H1003   1.083       .  S
C999       C1000   1.418       .  A
C999       O1004   1.372   1_545  S
C1000      C1001   1.404       .  A
C1001      C1002   1.414       .  A
C1001      H1005   1.083       .  S
C1002      O1006   1.370       .  S
O1004      H1008   0.991   1_565  S
O1006      H1007   0.992       .  S
C1009      C1010   1.409       .  A
C1009      C1014   1.409       .  A
C1010      C1011   1.404       .  A
C1010      H1015   1.083       .  S
C1011      C1012   1.418       .  A
C1011      O1016   1.372       .  S
C1012      C1013   1.410       .  A
C1013      C1014   1.401       .  A
C1013      H1017   1.082       .  S
C1014      O1018   1.371       .  S
O1016      H1020   0.991       .  S
O1018      H1019   0.992       .  S
C1021      C1022   1.409       .  A
C1021      C1026   1.409       .  A
C1022      C1023   1.400       .  A
C1022      H1027   1.084       .  S
C1023      C1024   1.411       .  A
C1023      O1028   1.372       .  S
C1024      C1025   1.411       .  A
C1025      C1026   1.410       .  A
C1025      H1029   1.083       .  S
C1026      O1030   1.371       .  S
O1028      H1032   0.991       .  S
O1030      H1031   0.991       .  S
C1033      C1034   1.406       .  A
C1033      C1038   1.416       .  A
C1034      C1035   1.408       .  A
C1034      H1039   1.083       .  S
C1035      C1036   1.414       .  A
C1035      O1040   1.372       .  S
C1036      C1037   1.404       .  A
C1037      C1038   1.407       .  A
C1037      H1041   1.082       .  S
C1038      O1042   1.372       .  S
O1040      H1044   0.992       .  S
O1042      H1043   0.991       .  S
C1045      C1046   1.401       .  A
C1045      C1050   1.418       .  A
C1046      C1047   1.410       .  A
C1046      H1051   1.083       .  S
C1047      C1048   1.419       .  A
C1047      O1052   1.369       .  S
C1048      C1049   1.406       .  A
C1049      C1050   1.412       .  A
C1049      H1053   1.082       .  S
C1050      O1054   1.371       .  S
O1052      H1056   0.992       .  S
O1054      H1055   0.992       .  S
C1057      C1058   1.410       .  A
C1057      C1062   1.416       .  A
C1058      C1059   1.420       .  A
C1058      H1063   1.083       .  S
C1059      C1060   1.416       .  A
C1059      O1064   1.368       .  S
C1060      C1061   1.408       .  A
C1061      C1062   1.404       .  A
C1061      H1065   1.084       .  S
C1062      O1066   1.372       .  S
O1064      H1068   0.992       .  S
O1066      H1067   0.992       .  S
C1069      C1070   1.409       .  A
C1069      C1074   1.413   1_545  A
C1070      C1071   1.411       .  A
C1070      H1075   1.084       .  S
C1071      C1072   1.409       .  A
C1071      O1076   1.370       .  S
C1072      C1073   1.409   1_545  A
C1073      C1074   1.412       .  A
C1073      H1077   1.084       .  S
C1074      O1078   1.372       .  S
O1076      H1080   0.992       .  S
O1078      H1079   0.992       .  S
C1081      C1082   1.405       .  A
C1081      C1086   1.410   1_545  A
C1082      C1083   1.398       .  A
C1082      H1087   1.084       .  S
C1083      C1084   1.408       .  A
C1083      O1088   1.372       .  S
C1084      C1085   1.409   1_545  A
C1085      C1086   1.411       .  A
C1085      H1089   1.083       .  S
C1086      O1090   1.371       .  S
O1088      H1092   0.992       .  S
O1090      H1091   0.992       .  S
C1093      C1094   1.406       .  A
C1093      C1098   1.415   1_545  A
C1094      C1095   1.406       .  A
C1094      H1099   1.084       .  S
C1095      C1096   1.414       .  A
C1095      O1100   1.372       .  S
C1096      C1097   1.410   1_545  A
C1097      C1098   1.417       .  A
C1097      H1101   1.083       .  S
C1098      O1102   1.371       .  S
O1100      H1104   0.992       .  S
O1102      H1103   0.992       .  S
C1105      C1106   1.412       .  A
C1105      C1110   1.408       .  A
C1106      C1107   1.415       .  A
C1106      H1111   1.083       .  S
C1107      C1108   1.415       .  A
C1107      O1112   1.371       .  S
C1108      C1109   1.416       .  A
C1109      C1110   1.412       .  A
C1109      H1113   1.083       .  S
C1110      O1114   1.372       .  S
O1112      H1116   0.989       .  S
O1114      H1115   0.992       .  S
C1117      C1118   1.402       .  A
C1117      C1122   1.406       .  A
C1118      C1119   1.394       .  A
C1118      H1123   1.084       .  S
C1119      C1120   1.409       .  A
C1119      O1124   1.371       .  S
C1120      C1121   1.406       .  A
C1121      C1122   1.394       .  A
C1121      H1125   1.083       .  S
C1122      O1126   1.372       .  S
O1124      H1128   0.992       .  S
O1126      H1127   0.992       .  S
C1129      C1130   1.398       .  A
C1129      C1134   1.421       .  A
C1130      C1131   1.399       .  A
C1130      H1135   1.083       .  S
C1131      C1132   1.413       .  A
C1131      O1136   1.371       .  S
C1132      C1133   1.390       .  A
C1133      C1134   1.392       .  A
C1133      H1137   1.085       .  S
C1134      O1138   1.372       .  S
O1136      H1140   0.991       .  S
O1138      H1139   0.992       .  S
C1141      C1142   1.412       .  A
C1141      C1146   1.417       .  A
C1142      C1143   1.402       .  A
C1142      H1147   1.083       .  S
C1143      C1144   1.409       .  A
C1143      O1148   1.371       .  S
C1144      C1145   1.408       .  A
C1145      C1146   1.403       .  A
C1145      H1149   1.082       .  S
C1146      O1150   1.372       .  S
O1148      H1152   0.991       .  S
O1150      H1151   0.991       .  S
C1153      C1154   1.402       .  A
C1153      C1158   1.405       .  A
C1154      C1155   1.392       .  A
C1154      H1159   1.084       .  S
C1155      C1156   1.407       .  A
C1155      O1160   1.373       .  S
C1156      C1157   1.406       .  A
C1157      C1158   1.402       .  A
C1157      H1161   1.083       .  S
C1158      O1162   1.371       .  S
O1160      H1164   0.992       .  S
O1162      H1163   0.992       .  S
C1165      C1166   1.407   1_655  A
C1165      C1170   1.409       .  A
C1166      C1167   1.410       .  A
C1166      H1171   1.083       .  S
C1167      C1168   1.411   1_455  A
C1167      O1172   1.372       .  S
C1168      C1169   1.409       .  A
C1169      C1170   1.409       .  A
C1169      H1173   1.084       .  S
C1170      O1174   1.367       .  S
O1172      H1176   0.992       .  S
O1174      H1175   0.992       .  S
C1177      C1178   1.414       .  A
C1177      C1182   1.414       .  A
C1178      C1179   1.416       .  A
C1178      H1183   1.082       .  S
C1179      C1180   1.410       .  A
C1179      O1184   1.371   1_655  S
C1180      C1181   1.409       .  A
C1181      C1182   1.408       .  A
C1181      H1185   1.084       .  S
C1182      O1186   1.372       .  S
O1184      H1188   0.991   1_455  S
O1186      H1187   0.992       .  S
C1189      C1190   1.406       .  A
C1189      C1194   1.415       .  A
C1190      C1191   1.412       .  A
C1190      H1195   1.083   1_655  S
C1191      C1192   1.414       .  A
C1191      O1196   1.370   1_655  S
C1192      C1193   1.408       .  A
C1193      C1194   1.410       .  A
C1193      H1197   1.083       .  S
C1194      O1198   1.374       .  S
O1196      H1200   0.991   1_455  S
O1198      H1199   0.992       .  S
C1201      C1202   1.402       .  A
C1201      C1206   1.411   1_655  A
C1202      C1203   1.408       .  A
C1202      H1207   1.084       .  S
C1203      C1204   1.415       .  A
C1203      O1208   1.372       .  S
C1204      C1205   1.409   1_655  A
C1205      C1206   1.406       .  A
C1205      H1209   1.084       .  S
C1206      O1210   1.372       .  S
O1208      H1212   0.992       .  S
O1210      H1211   0.991       .  S
C1213      C1214   1.403   1_655  A
C1213      C1218   1.412       .  A
C1214      C1215   1.407       .  A
C1214      H1219   1.083       .  S
C1215      C1216   1.412   1_455  A
C1215      O1220   1.372       .  S
C1216      C1217   1.402       .  A
C1217      C1218   1.398       .  A
C1217      H1221   1.084       .  S
C1218      O1222   1.373       .  S
O1220      H1224   0.992       .  S
O1222      H1223   0.992       .  S
C1225      C1226   1.405   1_655  A
C1225      C1230   1.408       .  A
C1226      C1227   1.395       .  A
C1226      H1231   1.084       .  S
C1227      C1228   1.402   1_455  A
C1227      O1232   1.373       .  S
C1228      C1229   1.402       .  A
C1229      C1230   1.402       .  A
C1229      H1233   1.083       .  S
C1230      O1234   1.371       .  S
O1232      H1236   0.992       .  S
O1234      H1235   0.991       .  S
C1237      C1238   1.407       .  A
C1237      C1242   1.407       .  A
C1238      C1239   1.409       .  A
C1238      H1243   1.084       .  S
C1239      C1240   1.409       .  A
C1239      O1244   1.372       .  S
C1240      C1241   1.407       .  A
C1241      C1242   1.402       .  A
C1241      H1245   1.084       .  S
C1242      O1246   1.372       .  S
O1244      H1248   0.992       .  S
O1246      H1247   0.992       .  S
C1249      C1250   1.409       .  A
C1249      C1254   1.406       .  A
C1250      C1251   1.413       .  A
C1250      H1255   1.083       .  S
C1251      C1252   1.416       .  A
C1251      O1256   1.371       .  S
C1252      C1253   1.414       .  A
C1253      C1254   1.407       .  A
C1253      H1257   1.083       .  S
C1254      O1258   1.371       .  S
O1256      H1260   0.992       .  S
O1258      H1259   0.991       .  S
C1261      C1262   1.410       .  A
C1261      C1266   1.407       .  A
C1262      C1263   1.412       .  A
C1262      H1267   1.083       .  S
C1263      C1264   1.412       .  A
C1263      O1268   1.372       .  S
C1264      C1265   1.409       .  A
C1265      C1266   1.407       .  A
C1265      H1269   1.084       .  S
C1266      O1270   1.368       .  S
O1268      H1272   0.992       .  S
O1270      H1271   0.992       .  S
C1273      C1274   1.413       .  A
C1273      C1278   1.418       .  A
C1274      C1275   1.419       .  A
C1274      H1279   1.083       .  S
C1275      C1276   1.414       .  A
C1275      O1280   1.371       .  S
C1276      C1277   1.407       .  A
C1277      C1278   1.410       .  A
C1277      H1281   1.084       .  S
C1278      O1282   1.372       .  S
O1280      H1284   0.992       .  S
O1282      H1283   0.992       .  S
C1285      C1286   1.403       .  A
C1285      C1290   1.410       .  A
C1286      C1287   1.408       .  A
C1286      H1291   1.083       .  S
C1287      C1288   1.415       .  A
C1287      O1292   1.372       .  S
C1288      C1289   1.407       .  A
C1289      C1290   1.406       .  A
C1289      H1293   1.084       .  S
C1290      O1294   1.372       .  S
O1292      H1296   0.992       .  S
O1294      H1295   0.992       .  S
C1297      C1298   1.413       .  A
C1297      C1302   1.407       .  A
C1298      C1299   1.415       .  A
C1298      H1303   1.084       .  S
C1299      C1300   1.415       .  A
C1299      O1304   1.371       .  S
C1300      C1301   1.415       .  A
C1301      C1302   1.412       .  A
C1301      H1305   1.083       .  S
C1302      O1306   1.371       .  S
O1304      H1308   0.992       .  S
O1306      H1307   0.992       .  S
C1309      C1310   1.405       .  A
C1309      C1314   1.413       .  A
C1310      C1311   1.408       .  A
C1310      H1315   1.083       .  S
C1311      C1312   1.410       .  A
C1311      O1316   1.372       .  S
C1312      C1313   1.397       .  A
C1313      C1314   1.400       .  A
C1313      H1317   1.084       .  S
C1314      O1318   1.373       .  S
O1316      H1320   0.992       .  S
O1318      H1319   0.992       .  S
C1321      C1322   1.414       .  A
C1321      C1326   1.414       .  A
C1322      C1323   1.420       .  A
C1322      H1327   1.083       .  S
C1323      C1324   1.412       .  A
C1323      O1328   1.371       .  S
C1324      C1325   1.409       .  A
C1325      C1326   1.408       .  A
C1325      H1329   1.084       .  S
C1326      O1330   1.372       .  S
O1328      H1332   0.992       .  S
O1330      H1331   0.992       .  S
C1333      C1334   1.399   1_455  A
C1333      C1338   1.407       .  A
C1334      C1335   1.387       .  A
C1334      H1339   1.085       .  S
C1335      C1336   1.405   1_655  A
C1335      O1340   1.373       .  S
C1336      C1337   1.405       .  A
C1337      C1338   1.404       .  A
C1337      H1341   1.083       .  S
C1338      O1342   1.371       .  S
O1340      H1344   0.992       .  S
O1342      H1343   0.991       .  S
C1345      C1346   1.407       .  A
C1345      C1350   1.399       .  A
C1346      C1347   1.392       .  A
C1346      H1351   1.084       .  S
C1347      C1348   1.398       .  A
C1347      O1352   1.371       .  S
C1348      C1349   1.411       .  A
C1349      C1350   1.390       .  A
C1349      H1353   1.084   1_455  S
C1350      O1354   1.372   1_455  S
O1352      H1356   0.992       .  S
O1354      H1355   0.992       .  S
C1357      C1358   1.399   1_455  A
C1357      C1362   1.404       .  A
C1358      C1359   1.392       .  A
C1358      H1363   1.084       .  S
C1359      C1360   1.407   1_655  A
C1359      O1364   1.372       .  S
C1360      C1361   1.403       .  A
C1361      C1362   1.394       .  A
C1361      H1365   1.084       .  S
C1362      O1366   1.372       .  S
O1364      H1368   0.992       .  S
O1366      H1367   0.992       .  S
C1369      C1370   1.417       .  A
C1369      C1374   1.413       .  A
C1370      C1371   1.417       .  A
C1370      H1375   1.083       .  S
C1371      C1372   1.410       .  A
C1371      O1376   1.370       .  S
C1372      C1373   1.415       .  A
C1373      C1374   1.413       .  A
C1373      H1377   1.084   1_655  S
C1374      O1378   1.372   1_655  S
O1376      H1380   0.992       .  S
O1378      H1379   0.992       .  S
C1381      C1382   1.404       .  A
C1381      C1386   1.417       .  A
C1382      C1383   1.414       .  A
C1382      H1387   1.083       .  S
C1383      C1384   1.426       .  A
C1383      O1388   1.372       .  S
C1384      C1385   1.412       .  A
C1385      C1386   1.419       .  A
C1385      H1389   1.083       .  S
C1386      O1390   1.371       .  S
O1388      H1392   0.992       .  S
O1390      H1391   0.992       .  S
C1393      C1394   1.406       .  A
C1393      C1398   1.412       .  A
C1394      C1395   1.402       .  A
C1394      H1399   1.083       .  S
C1395      C1396   1.419       .  A
C1395      O1400   1.372       .  S
C1396      C1397   1.410       .  A
C1397      C1398   1.400       .  A
C1397      H1401   1.083       .  S
C1398      O1402   1.371       .  S
O1400      H1404   0.991       .  S
O1402      H1403   0.991       .  S
